<?xml version="1.0" encoding="UTF-8"?>

<!-- generated on 6/27/2017 2:27:32 PM by Netedit Version 0.30.0
<?xml version="1.0" encoding="UTF-8"?>

<configuration xmlns:xsi="http://www.w3.org/2001/XMLSchema-instance" xsi:noNamespaceSchemaLocation="http://sumo.dlr.de/xsd/netconvertConfiguration.xsd">

    <input>
        <sumo-net-file value="D:\Project%20Code\sumo_sim\white_river\white_river.net.xml"/>
    </input>

    <output>
        <output-file value="D:\Project%20Code\sumo_sim\white_river\wr_selected.net.xml"/>
    </output>

    <processing>
        <no-turnarounds value="true"/>
        <offset.disable-normalization value="true"/>
        <lefthand value="false"/>
        <junctions.corner-detail value="0"/>
        <rectangular-lane-cut value="false"/>
    </processing>

</configuration>
-->

<net version="0.27" xmlns:xsi="http://www.w3.org/2001/XMLSchema-instance" xsi:noNamespaceSchemaLocation="http://sumo.dlr.de/xsd/net_file.xsd">

    <location netOffset="-567127.90,-4394397.78" convBoundary="2431.11,1632.11,4181.42,3610.88" origBoundary="-86.216100,39.696715,-86.168003,39.780899" projParameter="+proj=utm +zone=16 +ellps=WGS84 +datum=WGS84 +units=m +no_defs"/>

    <type id="highway.bridleway" priority="1" numLanes="1" speed="2.78" allow="pedestrian" oneway="1" width="2.00"/>
    <type id="highway.bus_guideway" priority="1" numLanes="1" speed="8.33" allow="bus" oneway="1"/>
    <type id="highway.cycleway" priority="1" numLanes="1" speed="5.56" allow="bicycle" oneway="0" width="1.00"/>
    <type id="highway.footway" priority="1" numLanes="1" speed="2.78" allow="pedestrian" oneway="1" width="2.00"/>
    <type id="highway.ford" priority="1" numLanes="1" speed="2.78" allow="army" oneway="0"/>
    <type id="highway.living_street" priority="3" numLanes="1" speed="2.78" disallow="tram rail_urban rail rail_electric ship" oneway="0"/>
    <type id="highway.motorway" priority="13" numLanes="2" speed="44.44" allow="private emergency authority army vip passenger hov taxi bus coach delivery truck trailer motorcycle evehicle custom1 custom2" oneway="1"/>
    <type id="highway.motorway_link" priority="12" numLanes="1" speed="22.22" allow="private emergency authority army vip passenger hov taxi bus coach delivery truck trailer motorcycle evehicle custom1 custom2" oneway="1"/>
    <type id="highway.path" priority="1" numLanes="1" speed="2.78" allow="bicycle pedestrian" oneway="1" width="2.00"/>
    <type id="highway.pedestrian" priority="1" numLanes="1" speed="2.78" allow="pedestrian" oneway="1" width="2.00"/>
    <type id="highway.primary" priority="9" numLanes="2" speed="27.78" disallow="tram rail_urban rail rail_electric ship" oneway="0"/>
    <type id="highway.primary_link" priority="8" numLanes="1" speed="22.22" disallow="tram rail_urban rail rail_electric ship" oneway="0"/>
    <type id="highway.raceway" priority="14" numLanes="2" speed="83.33" allow="vip" oneway="0"/>
    <type id="highway.residential" priority="4" numLanes="1" speed="13.89" disallow="tram rail_urban rail rail_electric ship" oneway="0"/>
    <type id="highway.secondary" priority="7" numLanes="2" speed="27.78" disallow="tram rail_urban rail rail_electric ship" oneway="0"/>
    <type id="highway.secondary_link" priority="6" numLanes="1" speed="22.22" disallow="tram rail_urban rail rail_electric ship" oneway="0"/>
    <type id="highway.service" priority="2" numLanes="1" speed="5.56" allow="delivery bicycle pedestrian" oneway="0"/>
    <type id="highway.services" priority="1" numLanes="1" speed="8.33" disallow="tram rail_urban rail rail_electric ship" oneway="0"/>
    <type id="highway.stairs" priority="1" numLanes="1" speed="1.39" allow="pedestrian" oneway="1" width="2.00"/>
    <type id="highway.step" priority="1" numLanes="1" speed="1.39" allow="pedestrian" oneway="1" width="2.00"/>
    <type id="highway.steps" priority="1" numLanes="1" speed="1.39" allow="pedestrian" oneway="1" width="2.00"/>
    <type id="highway.tertiary" priority="6" numLanes="1" speed="22.22" disallow="tram rail_urban rail rail_electric ship" oneway="0"/>
    <type id="highway.tertiary_link" priority="5" numLanes="1" speed="22.22" disallow="tram rail_urban rail rail_electric ship" oneway="0"/>
    <type id="highway.track" priority="1" numLanes="1" speed="5.56" disallow="tram rail_urban rail rail_electric ship" oneway="0"/>
    <type id="highway.trunk" priority="11" numLanes="2" speed="27.78" disallow="tram rail_urban rail rail_electric bicycle pedestrian ship" oneway="0"/>
    <type id="highway.trunk_link" priority="10" numLanes="1" speed="22.22" disallow="tram rail_urban rail rail_electric bicycle pedestrian ship" oneway="0"/>
    <type id="highway.unclassified" priority="5" numLanes="1" speed="13.89" disallow="tram rail_urban rail rail_electric ship" oneway="0"/>
    <type id="highway.unsurfaced" priority="1" numLanes="1" speed="8.33" disallow="tram rail_urban rail rail_electric ship" oneway="0"/>
    <type id="railway.light_rail" priority="15" numLanes="1" speed="27.78" allow="rail_urban" oneway="1"/>
    <type id="railway.preserved" priority="15" numLanes="1" speed="27.78" allow="rail" oneway="1"/>
    <type id="railway.rail" priority="15" numLanes="1" speed="83.33" allow="rail rail_electric" oneway="1"/>
    <type id="railway.subway" priority="15" numLanes="1" speed="27.78" allow="rail_urban" oneway="1"/>
    <type id="railway.tram" priority="15" numLanes="1" speed="13.89" allow="tram" oneway="1"/>

    <edge id=":1800949140_0" function="internal">
        <lane id=":1800949140_0_0" index="0" disallow="tram rail_urban rail rail_electric ship" speed="13.89" length="6.26" shape="3381.82,2034.35 3375.57,2034.17"/>
    </edge>
    <edge id=":1800949140_1" function="internal">
        <lane id=":1800949140_1_0" index="0" disallow="tram rail_urban rail rail_electric ship" speed="13.89" length="6.22" shape="3375.68,2030.87 3381.90,2031.05"/>
    </edge>
    <edge id=":1800949140_2" function="internal">
        <lane id=":1800949140_2_0" index="0" allow="rail rail_electric" speed="83.33" length="9.52" shape="3378.65,2037.39 3378.87,2027.87"/>
    </edge>
    <edge id=":1800949220_0" function="internal">
        <lane id=":1800949220_0_0" index="0" disallow="tram rail_urban rail rail_electric ship" speed="27.78" length="6.50" shape="3368.24,2854.56 3361.74,2854.32"/>
        <lane id=":1800949220_0_1" index="1" disallow="tram rail_urban rail rail_electric ship" speed="27.78" length="6.50" shape="3368.35,2851.26 3361.87,2851.02"/>
    </edge>
    <edge id=":1800949220_2" function="internal">
        <lane id=":1800949220_2_0" index="0" disallow="tram rail_urban rail rail_electric ship" speed="27.78" length="6.46" shape="3362.13,2844.43 3368.58,2844.66"/>
        <lane id=":1800949220_2_1" index="1" disallow="tram rail_urban rail rail_electric ship" speed="27.78" length="6.46" shape="3362.00,2847.73 3368.47,2847.96"/>
    </edge>
    <edge id=":1800949220_4" function="internal">
        <lane id=":1800949220_4_0" index="0" allow="rail rail_electric" speed="83.33" length="16.17" shape="3365.07,2857.58 3365.31,2841.41"/>
    </edge>
    <edge id=":1800949256_0" function="internal">
        <lane id=":1800949256_0_0" index="0" allow="rail rail_electric" speed="83.33" length="2.79" shape="2614.64,1637.12 2611.85,1637.03"/>
    </edge>
    <edge id=":1800949266_0" function="internal">
        <lane id=":1800949266_0_0" index="0" disallow="tram rail_urban rail rail_electric ship" speed="27.78" length="4.50" shape="4158.14,3428.67 4154.86,3431.74"/>
    </edge>
    <edge id=":1800949266_1" function="internal">
        <lane id=":1800949266_1_0" index="0" disallow="tram rail_urban rail rail_electric ship" speed="27.78" length="2.41" shape="4154.84,3428.73 4154.04,3429.98 4153.22,3430.41"/>
    </edge>
    <edge id=":1800949266_5" function="internal">
        <lane id=":1800949266_5_0" index="0" speed="27.78" length="2.41" shape="4153.22,3430.41 4152.39,3430.01 4151.54,3428.79"/>
    </edge>
    <edge id=":1800949266_2" function="internal">
        <lane id=":1800949266_2_0" index="0" disallow="tram rail_urban rail rail_electric ship" speed="27.78" length="3.64" shape="4151.56,3431.70 4148.24,3428.85"/>
        <lane id=":1800949266_2_1" index="1" disallow="tram rail_urban rail rail_electric ship" speed="27.78" length="3.64" shape="4151.56,3431.70 4151.54,3428.79"/>
    </edge>
    <edge id=":1800949266_4" function="internal">
        <lane id=":1800949266_4_0" index="0" disallow="tram rail_urban rail rail_electric ship" speed="27.78" length="3.19" shape="4151.56,3431.70 4152.39,3430.47 4153.22,3430.07 4153.91,3430.43"/>
    </edge>
    <edge id=":1800949266_6" function="internal">
        <lane id=":1800949266_6_0" index="0" speed="27.78" length="1.63" shape="4153.91,3430.43 4154.04,3430.49 4154.86,3431.74"/>
    </edge>
    <edge id=":1800949416_0" function="internal">
        <lane id=":1800949416_0_0" index="0" allow="rail rail_electric" speed="83.33" length="0.30" shape="3374.67,2257.84 3374.67,2257.54"/>
    </edge>
    <edge id=":1800949615_0" function="internal">
        <lane id=":1800949615_0_0" index="0" allow="rail rail_electric" speed="83.33" length="9.56" shape="2983.60,1647.81 2974.05,1647.66"/>
    </edge>
    <edge id=":1800949760_0" function="internal">
        <lane id=":1800949760_0_0" index="0" allow="rail rail_electric" speed="83.33" length="2.79" shape="2958.85,1647.70 2956.06,1647.64"/>
    </edge>
    <edge id=":1800949760_1" function="internal">
        <lane id=":1800949760_1_0" index="0" allow="rail rail_electric" speed="83.33" length="0.14" shape="2956.07,1647.33 2956.19,1647.41"/>
    </edge>
    <edge id=":1800949760_2" function="internal">
        <lane id=":1800949760_2_0" index="0" speed="83.33" length="0.32" shape="2956.19,1647.41 2956.23,1647.49 2956.18,1647.57 2956.06,1647.64"/>
    </edge>
    <edge id=":1801035261_0" function="internal">
        <lane id=":1801035261_0_0" index="0" disallow="tram rail_urban rail rail_electric ship" speed="27.78" length="16.30" shape="2542.59,2826.74 2542.89,2821.92 2543.48,2818.65 2544.08,2815.37 2544.39,2810.55"/>
        <lane id=":1801035261_0_1" index="1" disallow="tram rail_urban rail rail_electric ship" speed="27.78" length="16.30" shape="2545.89,2826.74 2546.19,2821.93 2546.78,2818.67 2547.38,2815.40 2547.69,2810.59"/>
    </edge>
    <edge id=":1801035261_2" function="internal">
        <lane id=":1801035261_2_0" index="0" disallow="tram rail_urban rail rail_electric ship" speed="27.78" length="12.22" shape="2549.19,2826.74 2549.41,2821.04 2549.94,2816.98 2550.81,2814.56 2551.99,2813.77"/>
        <lane id=":1801035261_2_1" index="1" disallow="tram rail_urban rail rail_electric ship" speed="27.78" length="12.22" shape="2549.19,2826.74 2549.39,2822.49 2549.91,2819.46 2550.75,2817.65 2551.92,2817.07"/>
    </edge>
    <edge id=":1801035261_4" function="internal">
        <lane id=":1801035261_4_0" index="0" disallow="tram rail_urban rail rail_electric ship" speed="27.78" length="14.20" shape="2551.76,2823.67 2548.48,2822.78 2546.16,2820.30 2544.80,2816.22 2544.39,2810.55"/>
        <lane id=":1801035261_4_1" index="1" disallow="tram rail_urban rail rail_electric ship" speed="27.78" length="14.20" shape="2551.84,2820.37 2549.98,2819.72 2548.67,2817.87 2547.91,2814.83 2547.69,2810.59"/>
    </edge>
    <edge id=":1801035261_6" function="internal">
        <lane id=":1801035261_6_0" index="0" disallow="tram rail_urban rail rail_electric ship" speed="27.78" length="4.82" shape="2551.84,2820.37 2550.62,2819.51 2550.23,2818.68 2550.66,2817.86 2551.92,2817.07"/>
    </edge>
    <edge id=":180377171_0" function="internal">
        <lane id=":180377171_0_0" index="0" disallow="tram rail_urban rail rail_electric ship" speed="13.89" length="5.43" shape="3370.45,3611.30 3369.15,3611.86 3367.86,3612.03 3366.58,3611.80 3365.31,3611.17"/>
    </edge>
    <edge id=":180377171_1" function="internal">
        <lane id=":180377171_1_0" index="0" disallow="tram rail_urban rail rail_electric ship" speed="13.89" length="2.84" shape="3370.45,3611.30 3368.96,3611.21 3368.19,3610.70 3368.16,3610.27"/>
    </edge>
    <edge id=":180377171_4" function="internal">
        <lane id=":180377171_4_0" index="0" speed="13.89" length="1.97" shape="3368.16,3610.27 3368.13,3609.78 3368.79,3608.45"/>
    </edge>
    <edge id=":180377171_2" function="internal">
        <lane id=":180377171_2_0" index="0" disallow="tram rail_urban rail rail_electric ship" speed="13.89" length="1.77" shape="3367.11,3608.41 3367.53,3608.61 3367.94,3608.69 3368.36,3608.63 3368.79,3608.45"/>
    </edge>
    <edge id=":180377171_3" function="internal">
        <lane id=":180377171_3_0" index="0" disallow="tram rail_urban rail rail_electric ship" speed="13.89" length="2.08" shape="3367.11,3608.41 3367.70,3609.77 3367.63,3610.36"/>
    </edge>
    <edge id=":180377171_5" function="internal">
        <lane id=":180377171_5_0" index="0" speed="13.89" length="2.74" shape="3367.63,3610.36 3367.60,3610.69 3366.80,3611.16 3365.31,3611.17"/>
    </edge>
    <edge id=":180377175_0" function="internal">
        <lane id=":180377175_0_0" index="0" disallow="tram rail_urban rail rail_electric ship" speed="13.89" length="4.82" shape="3408.88,3604.58 3409.74,3605.79 3409.83,3606.71 3409.15,3607.33 3407.70,3607.66"/>
    </edge>
    <edge id=":180377277_0" function="internal">
        <lane id=":180377277_0_0" index="0" disallow="tram rail_urban rail rail_electric ship" speed="27.78" length="9.58" shape="3214.03,2848.58 3204.45,2848.18"/>
        <lane id=":180377277_0_1" index="1" disallow="tram rail_urban rail rail_electric ship" speed="27.78" length="9.58" shape="3214.16,2845.29 3204.60,2844.88"/>
    </edge>
    <edge id=":180377277_2" function="internal">
        <lane id=":180377277_2_0" index="0" allow="delivery bicycle pedestrian" speed="16.67" length="4.43" shape="3214.16,2845.29 3211.45,2844.57 3210.30,2843.42"/>
    </edge>
    <edge id=":180377277_3" function="internal">
        <lane id=":180377277_3_0" index="0" disallow="tram rail_urban rail rail_electric ship" speed="27.78" length="2.41" shape="3214.16,2845.29 3212.95,2844.41 3212.57,2843.57"/>
    </edge>
    <edge id=":180377277_11" function="internal">
        <lane id=":180377277_11_0" index="0" speed="16.67" length="8.66" shape="3210.30,2843.42 3209.54,2842.67 3208.43,2839.57 3208.10,2835.28"/>
    </edge>
    <edge id=":180377277_12" function="internal">
        <lane id=":180377277_12_0" index="0" speed="27.78" length="2.41" shape="3212.57,2843.57 3213.02,2842.77 3214.29,2841.99"/>
    </edge>
    <edge id=":180377277_4" function="internal">
        <lane id=":180377277_4_0" index="0" disallow="tram rail_urban rail rail_electric ship" speed="16.67" length="5.12" shape="3211.40,2835.33 3211.57,2836.76 3212.13,2837.79 3213.08,2838.44 3214.42,2838.69"/>
    </edge>
    <edge id=":180377277_5" function="internal">
        <lane id=":180377277_5_0" index="0" disallow="tram rail_urban rail rail_electric ship" speed="16.67" length="13.30" shape="3211.40,2835.33 3210.92,2839.62 3209.63,2842.65 3207.52,2844.40 3204.60,2844.88"/>
    </edge>
    <edge id=":180377277_6" function="internal">
        <lane id=":180377277_6_0" index="0" allow="delivery bicycle pedestrian" speed="5.56" length="4.82" shape="3211.40,2835.33 3210.56,2836.56 3209.73,2836.96 3208.91,2836.53 3208.10,2835.28"/>
    </edge>
    <edge id=":180377277_7" function="internal">
        <lane id=":180377277_7_0" index="0" allow="delivery bicycle pedestrian" speed="16.67" length="5.04" shape="3204.91,2838.29 3206.29,2838.15 3207.28,2837.61 3207.89,2836.65 3208.10,2835.28"/>
    </edge>
    <edge id=":180377277_8" function="internal">
        <lane id=":180377277_8_0" index="0" disallow="tram rail_urban rail rail_electric ship" speed="27.78" length="9.53" shape="3204.91,2838.29 3214.42,2838.69"/>
        <lane id=":180377277_8_1" index="1" disallow="tram rail_urban rail rail_electric ship" speed="27.78" length="9.53" shape="3204.76,2841.58 3214.29,2841.99"/>
    </edge>
    <edge id=":180377277_10" function="internal">
        <lane id=":180377277_10_0" index="0" disallow="tram rail_urban rail rail_electric ship" speed="27.78" length="2.41" shape="3204.76,2841.58 3205.96,2842.46 3206.33,2843.31"/>
    </edge>
    <edge id=":180377277_13" function="internal">
        <lane id=":180377277_13_0" index="0" speed="27.78" length="2.41" shape="3206.33,2843.31 3205.88,2844.11 3204.60,2844.88"/>
    </edge>
    <edge id=":180377278_0" function="internal">
        <lane id=":180377278_0_0" index="0" allow="delivery bicycle pedestrian" speed="5.56" length="4.82" shape="3210.87,2654.06 3211.71,2652.84 3212.55,2652.44 3213.36,2652.87 3214.17,2654.12"/>
    </edge>
    <edge id=":180382666_0" function="internal">
        <lane id=":180382666_0_0" index="0" allow="rail rail_electric" speed="83.33" length="0.25" shape="2590.67,1636.31 2590.41,1636.30"/>
    </edge>
    <edge id=":180470870_0" function="internal">
        <lane id=":180470870_0_0" index="0" disallow="tram rail_urban rail rail_electric ship" speed="27.78" length="9.40" shape="2662.84,2826.82 2653.47,2826.51"/>
        <lane id=":180470870_0_1" index="1" disallow="tram rail_urban rail rail_electric ship" speed="27.78" length="9.40" shape="2662.97,2823.53 2653.56,2823.21"/>
    </edge>
    <edge id=":180470870_2" function="internal">
        <lane id=":180470870_2_0" index="0" disallow="tram rail_urban rail rail_electric ship" speed="20.84" length="4.36" shape="2662.97,2823.53 2660.28,2822.81 2659.16,2821.70"/>
    </edge>
    <edge id=":180470870_3" function="internal">
        <lane id=":180470870_3_0" index="0" disallow="tram rail_urban rail rail_electric ship" speed="27.78" length="2.41" shape="2662.97,2823.53 2661.77,2822.65 2661.39,2821.81"/>
    </edge>
    <edge id=":180470870_11" function="internal">
        <lane id=":180470870_11_0" index="0" speed="20.84" length="8.66" shape="2659.16,2821.70 2658.38,2820.92 2657.25,2817.84 2656.91,2813.57"/>
    </edge>
    <edge id=":180470870_12" function="internal">
        <lane id=":180470870_12_0" index="0" speed="27.78" length="2.41" shape="2661.39,2821.81 2661.83,2821.00 2663.10,2820.23"/>
    </edge>
    <edge id=":180470870_4" function="internal">
        <lane id=":180470870_4_0" index="0" disallow="tram rail_urban rail rail_electric ship" speed="20.84" length="5.09" shape="2660.21,2813.60 2660.38,2815.01 2660.95,2816.04 2661.89,2816.68 2663.23,2816.93"/>
    </edge>
    <edge id=":180470870_5" function="internal">
        <lane id=":180470870_5_0" index="0" disallow="tram rail_urban rail rail_electric ship" speed="20.84" length="13.22" shape="2660.21,2813.60 2659.76,2817.88 2658.50,2820.90 2656.43,2822.68 2653.56,2823.21"/>
    </edge>
    <edge id=":180470870_6" function="internal">
        <lane id=":180470870_6_0" index="0" disallow="tram rail_urban rail rail_electric ship" speed="13.89" length="4.82" shape="2660.21,2813.60 2659.37,2814.83 2658.54,2815.24 2657.72,2814.82 2656.91,2813.57"/>
    </edge>
    <edge id=":180470870_7" function="internal">
        <lane id=":180470870_7_0" index="0" disallow="tram rail_urban rail rail_electric ship" speed="20.84" length="5.02" shape="2653.75,2816.61 2655.12,2816.46 2656.10,2815.90 2656.70,2814.94 2656.91,2813.57"/>
    </edge>
    <edge id=":180470870_8" function="internal">
        <lane id=":180470870_8_0" index="0" disallow="tram rail_urban rail rail_electric ship" speed="27.78" length="9.47" shape="2653.75,2816.61 2663.23,2816.93"/>
        <lane id=":180470870_8_1" index="1" disallow="tram rail_urban rail rail_electric ship" speed="27.78" length="9.47" shape="2653.65,2819.91 2663.10,2820.23"/>
    </edge>
    <edge id=":180470870_10" function="internal">
        <lane id=":180470870_10_0" index="0" disallow="tram rail_urban rail rail_electric ship" speed="27.78" length="2.41" shape="2653.65,2819.91 2654.87,2820.77 2655.26,2821.61"/>
    </edge>
    <edge id=":180470870_13" function="internal">
        <lane id=":180470870_13_0" index="0" speed="27.78" length="2.41" shape="2655.26,2821.61 2654.82,2822.42 2653.56,2823.21"/>
    </edge>
    <edge id=":180470875_0" function="internal">
        <lane id=":180470875_0_0" index="0" disallow="tram rail_urban rail rail_electric ship" speed="13.89" length="5.03" shape="2667.51,2421.55 2666.13,2421.69 2665.14,2422.24 2664.54,2423.20 2664.33,2424.57"/>
    </edge>
    <edge id=":180470875_1" function="internal">
        <lane id=":180470875_1_0" index="0" disallow="tram rail_urban rail rail_electric ship" speed="13.89" length="9.70" shape="2667.51,2421.55 2657.82,2421.15"/>
    </edge>
    <edge id=":180470875_2" function="internal">
        <lane id=":180470875_2_0" index="0" disallow="tram rail_urban rail rail_electric ship" speed="13.89" length="10.48" shape="2667.51,2421.55 2664.70,2421.03 2662.70,2419.74 2661.51,2417.68 2661.14,2414.84"/>
    </edge>
    <edge id=":180470875_3" function="internal">
        <lane id=":180470875_3_0" index="0" disallow="tram rail_urban rail rail_electric ship" speed="13.89" length="4.82" shape="2667.51,2421.55 2666.30,2420.68 2665.92,2419.83 2666.37,2419.03 2667.64,2418.25"/>
    </edge>
    <edge id=":180470875_4" function="internal">
        <lane id=":180470875_4_0" index="0" disallow="tram rail_urban rail rail_electric ship" speed="13.89" length="5.27" shape="2664.44,2414.87 2664.63,2416.30 2665.22,2417.34 2666.23,2417.99 2667.64,2418.25"/>
    </edge>
    <edge id=":180470875_5" function="internal">
        <lane id=":180470875_5_0" index="0" disallow="tram rail_urban rail rail_electric ship" speed="13.89" length="9.69" shape="2664.44,2414.87 2664.33,2424.57"/>
    </edge>
    <edge id=":180470875_6" function="internal">
        <lane id=":180470875_6_0" index="0" disallow="tram rail_urban rail rail_electric ship" speed="13.89" length="5.24" shape="2664.44,2414.87 2664.00,2417.72 2662.75,2419.72"/>
    </edge>
    <edge id=":180470875_7" function="internal">
        <lane id=":180470875_7_0" index="0" disallow="tram rail_urban rail rail_electric ship" speed="13.89" length="2.41" shape="2664.44,2414.87 2663.60,2416.10 2662.77,2416.51"/>
    </edge>
    <edge id=":180470875_16" function="internal">
        <lane id=":180470875_16_0" index="0" speed="13.89" length="5.24" shape="2662.75,2419.72 2660.69,2420.86 2657.82,2421.15"/>
    </edge>
    <edge id=":180470875_17" function="internal">
        <lane id=":180470875_17_0" index="0" speed="13.89" length="2.41" shape="2662.77,2416.51 2661.95,2416.08 2661.14,2414.84"/>
    </edge>
    <edge id=":180470875_8" function="internal">
        <lane id=":180470875_8_0" index="0" disallow="tram rail_urban rail rail_electric ship" speed="13.89" length="5.04" shape="2657.96,2417.86 2659.34,2417.72 2660.33,2417.17 2660.93,2416.21 2661.14,2414.84"/>
    </edge>
    <edge id=":180470875_9" function="internal">
        <lane id=":180470875_9_0" index="0" disallow="tram rail_urban rail rail_electric ship" speed="13.89" length="9.69" shape="2657.96,2417.86 2667.64,2418.25"/>
    </edge>
    <edge id=":180470875_10" function="internal">
        <lane id=":180470875_10_0" index="0" disallow="tram rail_urban rail rail_electric ship" speed="13.89" length="10.48" shape="2657.96,2417.86 2660.78,2418.38 2662.78,2419.67 2663.96,2421.73 2664.33,2424.57"/>
    </edge>
    <edge id=":180470875_11" function="internal">
        <lane id=":180470875_11_0" index="0" disallow="tram rail_urban rail rail_electric ship" speed="13.89" length="4.82" shape="2657.96,2417.86 2659.16,2418.73 2659.54,2419.57 2659.09,2420.38 2657.82,2421.15"/>
    </edge>
    <edge id=":180470875_12" function="internal">
        <lane id=":180470875_12_0" index="0" disallow="tram rail_urban rail rail_electric ship" speed="13.89" length="5.27" shape="2661.03,2424.53 2660.84,2423.10 2660.25,2422.07 2659.24,2421.42 2657.82,2421.15"/>
    </edge>
    <edge id=":180470875_13" function="internal">
        <lane id=":180470875_13_0" index="0" disallow="tram rail_urban rail rail_electric ship" speed="13.89" length="9.69" shape="2661.03,2424.53 2661.14,2414.84"/>
    </edge>
    <edge id=":180470875_14" function="internal">
        <lane id=":180470875_14_0" index="0" disallow="tram rail_urban rail rail_electric ship" speed="13.89" length="5.23" shape="2661.03,2424.53 2661.47,2421.68 2662.72,2419.69"/>
    </edge>
    <edge id=":180470875_15" function="internal">
        <lane id=":180470875_15_0" index="0" disallow="tram rail_urban rail rail_electric ship" speed="13.89" length="2.41" shape="2661.03,2424.53 2661.87,2423.30 2662.70,2422.90"/>
    </edge>
    <edge id=":180470875_18" function="internal">
        <lane id=":180470875_18_0" index="0" speed="13.89" length="5.23" shape="2662.72,2419.69 2664.78,2418.55 2667.64,2418.25"/>
    </edge>
    <edge id=":180470875_19" function="internal">
        <lane id=":180470875_19_0" index="0" speed="13.89" length="2.41" shape="2662.70,2422.90 2663.52,2423.32 2664.33,2424.57"/>
    </edge>
    <edge id=":180470881_0" function="internal">
        <lane id=":180470881_0_0" index="0" disallow="tram rail_urban rail rail_electric ship" speed="13.89" length="5.01" shape="2671.79,2014.50 2670.42,2014.67 2669.44,2015.23 2668.85,2016.19 2668.64,2017.55"/>
    </edge>
    <edge id=":180470881_1" function="internal">
        <lane id=":180470881_1_0" index="0" disallow="tram rail_urban rail rail_electric ship" speed="13.89" length="9.48" shape="2671.79,2014.50 2662.31,2014.24"/>
    </edge>
    <edge id=":180470881_2" function="internal">
        <lane id=":180470881_2_0" index="0" disallow="tram rail_urban rail rail_electric ship" speed="13.89" length="2.41" shape="2671.79,2014.50 2670.57,2013.65 2670.17,2012.82"/>
    </edge>
    <edge id=":180470881_9" function="internal">
        <lane id=":180470881_9_0" index="0" speed="13.89" length="2.41" shape="2670.17,2012.82 2670.60,2012.00 2671.86,2011.20"/>
    </edge>
    <edge id=":180470881_3" function="internal">
        <lane id=":180470881_3_0" index="0" disallow="tram rail_urban rail rail_electric ship" speed="13.89" length="9.44" shape="2662.42,2010.94 2671.86,2011.20"/>
    </edge>
    <edge id=":180470881_4" function="internal">
        <lane id=":180470881_4_0" index="0" disallow="tram rail_urban rail rail_electric ship" speed="13.89" length="5.12" shape="2662.42,2010.94 2665.17,2011.44 2667.12,2012.70"/>
    </edge>
    <edge id=":180470881_5" function="internal">
        <lane id=":180470881_5_0" index="0" disallow="tram rail_urban rail rail_electric ship" speed="13.89" length="2.41" shape="2662.42,2010.94 2663.63,2011.81 2664.02,2012.65"/>
    </edge>
    <edge id=":180470881_10" function="internal">
        <lane id=":180470881_10_0" index="0" speed="13.89" length="5.18" shape="2667.12,2012.70 2668.28,2014.74 2668.64,2017.55"/>
    </edge>
    <edge id=":180470881_11" function="internal">
        <lane id=":180470881_11_0" index="0" speed="13.89" length="2.41" shape="2664.02,2012.65 2663.58,2013.46 2662.31,2014.24"/>
    </edge>
    <edge id=":180470881_6" function="internal">
        <lane id=":180470881_6_0" index="0" disallow="tram rail_urban rail rail_electric ship" speed="13.89" length="5.06" shape="2665.34,2017.52 2665.16,2016.12 2664.60,2015.11 2663.65,2014.49 2662.31,2014.24"/>
    </edge>
    <edge id=":180470881_7" function="internal">
        <lane id=":180470881_7_0" index="0" disallow="tram rail_urban rail rail_electric ship" speed="13.89" length="10.37" shape="2665.34,2017.52 2665.77,2014.70 2667.00,2012.71 2669.03,2011.54 2671.86,2011.20"/>
    </edge>
    <edge id=":180470881_8" function="internal">
        <lane id=":180470881_8_0" index="0" disallow="tram rail_urban rail rail_electric ship" speed="13.89" length="4.82" shape="2665.34,2017.52 2666.18,2016.29 2667.01,2015.88 2667.83,2016.31 2668.64,2017.55"/>
    </edge>
    <edge id=":180504488_0" function="internal">
        <lane id=":180504488_0_0" index="0" disallow="tram rail_urban rail rail_electric ship" speed="27.78" length="4.82" shape="4154.51,3466.30 4153.67,3467.53 4152.84,3467.93 4152.02,3467.51 4151.21,3466.26"/>
    </edge>
    <edge id=":180504490_0" function="internal">
        <lane id=":180504490_0_0" index="0" disallow="tram rail_urban rail rail_electric ship" speed="27.78" length="0.36" shape="4147.90,3409.93 4147.90,3409.50"/>
        <lane id=":180504490_0_1" index="1" disallow="tram rail_urban rail rail_electric ship" speed="27.78" length="0.36" shape="4151.20,3409.87 4151.20,3409.57"/>
    </edge>
    <edge id=":180504490_2" function="internal">
        <lane id=":180504490_2_0" index="0" disallow="tram rail_urban rail rail_electric ship" speed="27.78" length="2.41" shape="4151.20,3409.87 4152.00,3408.61 4152.82,3408.19"/>
    </edge>
    <edge id=":180504490_6" function="internal">
        <lane id=":180504490_6_0" index="0" speed="27.78" length="2.41" shape="4152.82,3408.19 4153.65,3408.58 4154.50,3409.81"/>
    </edge>
    <edge id=":180504490_3" function="internal">
        <lane id=":180504490_3_0" index="0" disallow="tram rail_urban rail rail_electric ship" speed="27.78" length="0.13" shape="4157.80,3409.70 4157.80,3409.75"/>
        <lane id=":180504490_3_1" index="1" disallow="tram rail_urban rail rail_electric ship" speed="27.78" length="0.13" shape="4154.50,3409.64 4154.50,3409.81"/>
    </edge>
    <edge id=":180504490_5" function="internal">
        <lane id=":180504490_5_0" index="0" disallow="tram rail_urban rail rail_electric ship" speed="27.78" length="2.41" shape="4154.50,3409.64 4153.65,3410.86 4152.82,3411.25"/>
    </edge>
    <edge id=":180504490_7" function="internal">
        <lane id=":180504490_7_0" index="0" speed="27.78" length="2.41" shape="4152.82,3411.25 4152.00,3410.82 4151.20,3409.57"/>
    </edge>
    <edge id=":180504492_0" function="internal">