<?xml version="1.0" encoding="UTF-8"?>

<!-- generated on 7/21/2017 3:20:38 PM by Netedit Version 0.30.0
<?xml version="1.0" encoding="UTF-8"?>

<configuration xmlns:xsi="http://www.w3.org/2001/XMLSchema-instance" xsi:noNamespaceSchemaLocation="http://sumo.dlr.de/xsd/netconvertConfiguration.xsd">

    <input>
        <sumo-net-file value="C:\Users\shek628\Desktop\sumo_sim\white_river\wr_selected_new2.net.xml"/>
    </input>

    <output>
        <output-file value="C:\Users\shek628\Desktop\sumo_sim\white_river\wr_selected_new2.net.xml"/>
    </output>

    <processing>
        <no-turnarounds value="true"/>
        <offset.disable-normalization value="true"/>
        <lefthand value="false"/>
        <junctions.corner-detail value="0"/>
        <rectangular-lane-cut value="false"/>
    </processing>

</configuration>
-->

<net version="0.27" xmlns:xsi="http://www.w3.org/2001/XMLSchema-instance" xsi:noNamespaceSchemaLocation="http://sumo.dlr.de/xsd/net_file.xsd">

    <location netOffset="-567127.90,-4394397.78" convBoundary="2545.08,1647.65,4181.42,3561.92" origBoundary="-86.216100,39.696715,-86.168003,39.780899" projParameter="+proj=utm +zone=16 +ellps=WGS84 +datum=WGS84 +units=m +no_defs"/>

    <type id="highway.bridleway" priority="1" numLanes="1" speed="2.78" allow="pedestrian" oneway="1" width="2.00"/>
    <type id="highway.bus_guideway" priority="1" numLanes="1" speed="8.33" allow="bus" oneway="1"/>
    <type id="highway.cycleway" priority="1" numLanes="1" speed="5.56" allow="bicycle" oneway="0" width="1.00"/>
    <type id="highway.footway" priority="1" numLanes="1" speed="2.78" allow="pedestrian" oneway="1" width="2.00"/>
    <type id="highway.ford" priority="1" numLanes="1" speed="2.78" allow="army" oneway="0"/>
    <type id="highway.living_street" priority="3" numLanes="1" speed="2.78" disallow="tram rail_urban rail rail_electric ship" oneway="0"/>
    <type id="highway.motorway" priority="13" numLanes="2" speed="44.44" allow="private emergency authority army vip passenger hov taxi bus coach delivery truck trailer motorcycle evehicle custom1 custom2" oneway="1"/>
    <type id="highway.motorway_link" priority="12" numLanes="1" speed="22.22" allow="private emergency authority army vip passenger hov taxi bus coach delivery truck trailer motorcycle evehicle custom1 custom2" oneway="1"/>
    <type id="highway.path" priority="1" numLanes="1" speed="2.78" allow="bicycle pedestrian" oneway="1" width="2.00"/>
    <type id="highway.pedestrian" priority="1" numLanes="1" speed="2.78" allow="pedestrian" oneway="1" width="2.00"/>
    <type id="highway.primary" priority="9" numLanes="2" speed="27.78" disallow="tram rail_urban rail rail_electric ship" oneway="0"/>
    <type id="highway.primary_link" priority="8" numLanes="1" speed="22.22" disallow="tram rail_urban rail rail_electric ship" oneway="0"/>
    <type id="highway.raceway" priority="14" numLanes="2" speed="83.33" allow="vip" oneway="0"/>
    <type id="highway.residential" priority="4" numLanes="1" speed="13.89" disallow="tram rail_urban rail rail_electric ship" oneway="0"/>
    <type id="highway.secondary" priority="7" numLanes="2" speed="27.78" disallow="tram rail_urban rail rail_electric ship" oneway="0"/>
    <type id="highway.secondary_link" priority="6" numLanes="1" speed="22.22" disallow="tram rail_urban rail rail_electric ship" oneway="0"/>
    <type id="highway.service" priority="2" numLanes="1" speed="5.56" allow="delivery bicycle pedestrian" oneway="0"/>
    <type id="highway.services" priority="1" numLanes="1" speed="8.33" disallow="tram rail_urban rail rail_electric ship" oneway="0"/>
    <type id="highway.stairs" priority="1" numLanes="1" speed="1.39" allow="pedestrian" oneway="1" width="2.00"/>
    <type id="highway.step" priority="1" numLanes="1" speed="1.39" allow="pedestrian" oneway="1" width="2.00"/>
    <type id="highway.steps" priority="1" numLanes="1" speed="1.39" allow="pedestrian" oneway="1" width="2.00"/>
    <type id="highway.tertiary" priority="6" numLanes="1" speed="22.22" disallow="tram rail_urban rail rail_electric ship" oneway="0"/>
    <type id="highway.tertiary_link" priority="5" numLanes="1" speed="22.22" disallow="tram rail_urban rail rail_electric ship" oneway="0"/>
    <type id="highway.track" priority="1" numLanes="1" speed="5.56" disallow="tram rail_urban rail rail_electric ship" oneway="0"/>
    <type id="highway.trunk" priority="11" numLanes="2" speed="27.78" disallow="tram rail_urban rail rail_electric bicycle pedestrian ship" oneway="0"/>
    <type id="highway.trunk_link" priority="10" numLanes="1" speed="22.22" disallow="tram rail_urban rail rail_electric bicycle pedestrian ship" oneway="0"/>
    <type id="highway.unclassified" priority="5" numLanes="1" speed="13.89" disallow="tram rail_urban rail rail_electric ship" oneway="0"/>
    <type id="highway.unsurfaced" priority="1" numLanes="1" speed="8.33" disallow="tram rail_urban rail rail_electric ship" oneway="0"/>
    <type id="railway.light_rail" priority="15" numLanes="1" speed="27.78" allow="rail_urban" oneway="1"/>
    <type id="railway.preserved" priority="15" numLanes="1" speed="27.78" allow="rail" oneway="1"/>
    <type id="railway.rail" priority="15" numLanes="1" speed="83.33" allow="rail rail_electric" oneway="1"/>
    <type id="railway.subway" priority="15" numLanes="1" speed="27.78" allow="rail_urban" oneway="1"/>
    <type id="railway.tram" priority="15" numLanes="1" speed="13.89" allow="tram" oneway="1"/>

    <edge id=":1800949140_0" function="internal">
        <lane id=":1800949140_0_0" index="0" disallow="tram rail_urban rail rail_electric ship" speed="13.89" length="0.31" shape="3378.85,2034.28 3378.54,2034.27"/>
    </edge>
    <edge id=":1800949140_1" function="internal">
        <lane id=":1800949140_1_0" index="0" disallow="tram rail_urban rail rail_electric ship" speed="13.89" length="0.27" shape="3378.65,2030.98 3378.92,2030.98"/>
    </edge>
    <edge id=":1800949220_0" function="internal">
        <lane id=":1800949220_0_0" index="0" disallow="tram rail_urban rail rail_electric ship" speed="27.78" length="0.32" shape="3365.16,2854.45 3364.84,2854.44"/>
        <lane id=":1800949220_0_1" index="1" disallow="tram rail_urban rail rail_electric ship" speed="27.78" length="0.32" shape="3365.27,2851.15 3364.97,2851.14"/>
    </edge>
    <edge id=":1800949220_2" function="internal">
        <lane id=":1800949220_2_0" index="0" disallow="tram rail_urban rail rail_electric ship" speed="27.78" length="0.28" shape="3365.22,2844.55 3365.50,2844.56"/>
        <lane id=":1800949220_2_1" index="1" disallow="tram rail_urban rail rail_electric ship" speed="27.78" length="0.28" shape="3365.09,2847.85 3365.38,2847.86"/>
    </edge>
    <edge id=":1800949266_0" function="internal">
        <lane id=":1800949266_0_0" index="0" disallow="tram rail_urban rail rail_electric ship" speed="27.78" length="4.50" shape="4158.14,3428.67 4154.86,3431.74"/>
    </edge>
    <edge id=":1800949266_1" function="internal">
        <lane id=":1800949266_1_0" index="0" disallow="tram rail_urban rail rail_electric ship" speed="27.78" length="2.41" shape="4154.84,3428.73 4154.04,3429.98 4153.22,3430.41"/>
    </edge>
    <edge id=":1800949266_5" function="internal">
        <lane id=":1800949266_5_0" index="0" speed="27.78" length="2.41" shape="4153.22,3430.41 4152.39,3430.01 4151.54,3428.79"/>
    </edge>
    <edge id=":1800949266_2" function="internal">
        <lane id=":1800949266_2_0" index="0" disallow="tram rail_urban rail rail_electric ship" speed="27.78" length="3.64" shape="4151.56,3431.70 4148.24,3428.85"/>
        <lane id=":1800949266_2_1" index="1" disallow="tram rail_urban rail rail_electric ship" speed="27.78" length="3.64" shape="4151.56,3431.70 4151.54,3428.79"/>
    </edge>
    <edge id=":1800949266_4" function="internal">
        <lane id=":1800949266_4_0" index="0" disallow="tram rail_urban rail rail_electric ship" speed="27.78" length="3.19" shape="4151.56,3431.70 4152.39,3430.47 4153.22,3430.07 4153.91,3430.43"/>
    </edge>
    <edge id=":1800949266_6" function="internal">
        <lane id=":1800949266_6_0" index="0" speed="27.78" length="1.63" shape="4153.91,3430.43 4154.04,3430.49 4154.86,3431.74"/>
    </edge>
    <edge id=":1801035261_0" function="internal">
        <lane id=":1801035261_0_0" index="0" disallow="tram rail_urban rail rail_electric ship" speed="27.78" length="16.16" shape="2542.59,2826.74 2542.74,2810.55"/>
        <lane id=":1801035261_0_1" index="1" disallow="tram rail_urban rail rail_electric ship" speed="27.78" length="16.16" shape="2545.89,2826.74 2546.04,2810.59"/>
        <lane id=":1801035261_0_2" index="2" disallow="tram rail_urban rail rail_electric ship" speed="27.78" length="16.16" shape="2549.19,2826.74 2549.34,2810.63"/>
    </edge>
    <edge id=":1801035261_3" function="internal">
        <lane id=":1801035261_3_0" index="0" disallow="tram rail_urban rail rail_electric ship" speed="27.78" length="12.22" shape="2549.19,2826.74 2549.41,2821.04 2549.94,2816.98 2550.81,2814.56 2551.99,2813.77"/>
        <lane id=":1801035261_3_1" index="1" disallow="tram rail_urban rail rail_electric ship" speed="27.78" length="12.22" shape="2549.19,2826.74 2549.39,2822.49 2549.91,2819.46 2550.75,2817.65 2551.92,2817.07"/>
    </edge>
    <edge id=":1801035261_5" function="internal">
        <lane id=":1801035261_5_0" index="0" disallow="tram rail_urban rail rail_electric ship" speed="27.78" length="13.13" shape="2551.76,2823.67 2549.21,2822.80 2547.40,2820.33 2546.34,2816.26 2546.04,2810.59"/>
        <lane id=":1801035261_5_1" index="1" disallow="tram rail_urban rail rail_electric ship" speed="27.78" length="13.13" shape="2551.84,2820.37 2550.71,2819.74 2549.91,2817.90 2549.45,2814.87 2549.34,2810.63"/>
    </edge>
    <edge id=":180377277_0" function="internal">
        <lane id=":180377277_0_0" index="0" disallow="tram rail_urban rail rail_electric ship" speed="27.78" length="9.58" shape="3214.03,2848.58 3204.45,2848.18"/>
        <lane id=":180377277_0_1" index="1" disallow="tram rail_urban rail rail_electric ship" speed="27.78" length="9.58" shape="3214.16,2845.29 3204.60,2844.88"/>
    </edge>
    <edge id=":180377277_2" function="internal">
        <lane id=":180377277_2_0" index="0" allow="delivery bicycle pedestrian" speed="16.67" length="4.43" shape="3214.16,2845.29 3211.45,2844.57 3210.30,2843.42"/>
    </edge>
    <edge id=":180377277_3" function="internal">
        <lane id=":180377277_3_0" index="0" disallow="tram rail_urban rail rail_electric ship" speed="27.78" length="2.41" shape="3214.16,2845.29 3212.95,2844.41 3212.57,2843.57"/>
    </edge>
    <edge id=":180377277_11" function="internal">
        <lane id=":180377277_11_0" index="0" speed="16.67" length="8.66" shape="3210.30,2843.42 3209.54,2842.67 3208.43,2839.57 3208.10,2835.28"/>
    </edge>
    <edge id=":180377277_12" function="internal">
        <lane id=":180377277_12_0" index="0" speed="27.78" length="2.41" shape="3212.57,2843.57 3213.02,2842.77 3214.29,2841.99"/>
    </edge>
    <edge id=":180377277_4" function="internal">
        <lane id=":180377277_4_0" index="0" disallow="tram rail_urban rail rail_electric ship" speed="16.67" length="5.12" shape="3211.40,2835.33 3211.57,2836.76 3212.13,2837.79 3213.08,2838.44 3214.42,2838.69"/>
    </edge>
    <edge id=":180377277_5" function="internal">
        <lane id=":180377277_5_0" index="0" disallow="tram rail_urban rail rail_electric ship" speed="16.67" length="13.30" shape="3211.40,2835.33 3210.92,2839.62 3209.63,2842.65 3207.52,2844.40 3204.60,2844.88"/>
    </edge>
    <edge id=":180377277_6" function="internal">
        <lane id=":180377277_6_0" index="0" allow="delivery bicycle pedestrian" speed="5.56" length="4.82" shape="3211.40,2835.33 3210.56,2836.56 3209.73,2836.96 3208.91,2836.53 3208.10,2835.28"/>
    </edge>
    <edge id=":180377277_7" function="internal">
        <lane id=":180377277_7_0" index="0" allow="delivery bicycle pedestrian" speed="16.67" length="5.04" shape="3204.91,2838.29 3206.29,2838.15 3207.28,2837.61 3207.89,2836.65 3208.10,2835.28"/>
    </edge>
    <edge id=":180377277_8" function="internal">
        <lane id=":180377277_8_0" index="0" disallow="tram rail_urban rail rail_electric ship" speed="27.78" length="9.53" shape="3204.91,2838.29 3214.42,2838.69"/>
        <lane id=":180377277_8_1" index="1" disallow="tram rail_urban rail rail_electric ship" speed="27.78" length="9.53" shape="3204.76,2841.58 3214.29,2841.99"/>
    </edge>
    <edge id=":180377277_10" function="internal">
        <lane id=":180377277_10_0" index="0" disallow="tram rail_urban rail rail_electric ship" speed="27.78" length="2.41" shape="3204.76,2841.58 3205.96,2842.46 3206.33,2843.31"/>
    </edge>
    <edge id=":180377277_13" function="internal">
        <lane id=":180377277_13_0" index="0" speed="27.78" length="2.41" shape="3206.33,2843.31 3205.88,2844.11 3204.60,2844.88"/>
    </edge>
    <edge id=":180377278_0" function="internal">
        <lane id=":180377278_0_0" index="0" allow="delivery bicycle pedestrian" speed="5.56" length="4.82" shape="3210.87,2654.06 3211.71,2652.84 3212.55,2652.44 3213.36,2652.87 3214.17,2654.12"/>
    </edge>
    <edge id=":180470870_0" function="internal">
        <lane id=":180470870_0_0" index="0" disallow="tram rail_urban rail rail_electric ship" speed="27.78" length="9.40" shape="2662.84,2826.82 2653.47,2826.51"/>
        <lane id=":180470870_0_1" index="1" disallow="tram rail_urban rail rail_electric ship" speed="27.78" length="9.40" shape="2662.97,2823.53 2653.56,2823.21"/>
    </edge>
    <edge id=":180470870_2" function="internal">
        <lane id=":180470870_2_0" index="0" disallow="tram rail_urban rail rail_electric ship" speed="20.84" length="4.36" shape="2662.97,2823.53 2660.28,2822.81 2659.16,2821.70"/>
    </edge>
    <edge id=":180470870_3" function="internal">
        <lane id=":180470870_3_0" index="0" disallow="tram rail_urban rail rail_electric ship" speed="27.78" length="2.41" shape="2662.97,2823.53 2661.77,2822.65 2661.39,2821.81"/>
    </edge>
    <edge id=":180470870_11" function="internal">
        <lane id=":180470870_11_0" index="0" speed="20.84" length="8.66" shape="2659.16,2821.70 2658.38,2820.92 2657.25,2817.84 2656.91,2813.57"/>
    </edge>
    <edge id=":180470870_12" function="internal">
        <lane id=":180470870_12_0" index="0" speed="27.78" length="2.41" shape="2661.39,2821.81 2661.83,2821.00 2663.10,2820.23"/>
    </edge>
    <edge id=":180470870_4" function="internal">
        <lane id=":180470870_4_0" index="0" disallow="tram rail_urban rail rail_electric ship" speed="20.84" length="5.09" shape="2660.21,2813.60 2660.38,2815.01 2660.95,2816.04 2661.89,2816.68 2663.23,2816.93"/>
    </edge>
    <edge id=":180470870_5" function="internal">
        <lane id=":180470870_5_0" index="0" disallow="tram rail_urban rail rail_electric ship" speed="20.84" length="13.22" shape="2660.21,2813.60 2659.76,2817.88 2658.50,2820.90 2656.43,2822.68 2653.56,2823.21"/>
    </edge>
    <edge id=":180470870_6" function="internal">
        <lane id=":180470870_6_0" index="0" disallow="tram rail_urban rail rail_electric ship" speed="13.89" length="2.69" shape="2660.21,2813.60 2659.37,2814.83 2658.54,2815.24 2658.29,2815.11"/>
    </edge>
    <edge id=":180470870_13" function="internal">
        <lane id=":180470870_13_0" index="0" speed="13.89" length="2.13" shape="2658.29,2815.11 2657.72,2814.82 2656.91,2813.57"/>
    </edge>
    <edge id=":180470870_7" function="internal">
        <lane id=":180470870_7_0" index="0" disallow="tram rail_urban rail rail_electric ship" speed="20.84" length="5.02" shape="2653.75,2816.61 2655.12,2816.46 2656.10,2815.90 2656.70,2814.94 2656.91,2813.57"/>
    </edge>
    <edge id=":180470870_8" function="internal">
        <lane id=":180470870_8_0" index="0" disallow="tram rail_urban rail rail_electric ship" speed="27.78" length="9.47" shape="2653.75,2816.61 2663.23,2816.93"/>
        <lane id=":180470870_8_1" index="1" disallow="tram rail_urban rail rail_electric ship" speed="27.78" length="9.47" shape="2653.65,2819.91 2663.10,2820.23"/>
    </edge>
    <edge id=":180470870_10" function="internal">
        <lane id=":180470870_10_0" index="0" disallow="tram rail_urban rail rail_electric ship" speed="27.78" length="2.41" shape="2653.65,2819.91 2654.87,2820.77 2655.26,2821.61"/>
    </edge>
    <edge id=":180470870_14" function="internal">
        <lane id=":180470870_14_0" index="0" speed="27.78" length="2.41" shape="2655.26,2821.61 2654.82,2822.42 2653.56,2823.21"/>
    </edge>
    <edge id=":180470875_0" function="internal">
        <lane id=":180470875_0_0" index="0" disallow="tram rail_urban rail rail_electric ship" speed="13.89" length="5.03" shape="2667.51,2421.55 2666.13,2421.69 2665.14,2422.24 2664.54,2423.20 2664.33,2424.57"/>
    </edge>
    <edge id=":180470875_1" function="internal">
        <lane id=":180470875_1_0" index="0" disallow="tram rail_urban rail rail_electric ship" speed="13.89" length="9.70" shape="2667.51,2421.55 2657.82,2421.15"/>
    </edge>
    <edge id=":180470875_2" function="internal">
        <lane id=":180470875_2_0" index="0" disallow="tram rail_urban rail rail_electric ship" speed="13.89" length="10.48" shape="2667.51,2421.55 2664.70,2421.03 2662.70,2419.74 2661.51,2417.68 2661.14,2414.84"/>
    </edge>
    <edge id=":180470875_3" function="internal">
        <lane id=":180470875_3_0" index="0" disallow="tram rail_urban rail rail_electric ship" speed="13.89" length="4.82" shape="2667.51,2421.55 2666.30,2420.68 2665.92,2419.83 2666.37,2419.03 2667.64,2418.25"/>
    </edge>
    <edge id=":180470875_4" function="internal">
        <lane id=":180470875_4_0" index="0" disallow="tram rail_urban rail rail_electric ship" speed="13.89" length="5.27" shape="2664.44,2414.87 2664.63,2416.30 2665.22,2417.34 2666.23,2417.99 2667.64,2418.25"/>
    </edge>
    <edge id=":180470875_5" function="internal">
        <lane id=":180470875_5_0" index="0" disallow="tram rail_urban rail rail_electric ship" speed="13.89" length="9.69" shape="2664.44,2414.87 2664.33,2424.57"/>
    </edge>
    <edge id=":180470875_6" function="internal">
        <lane id=":180470875_6_0" index="0" disallow="tram rail_urban rail rail_electric ship" speed="13.89" length="5.24" shape="2664.44,2414.87 2664.00,2417.72 2662.75,2419.72"/>
    </edge>
    <edge id=":180470875_7" function="internal">
        <lane id=":180470875_7_0" index="0" disallow="tram rail_urban rail rail_electric ship" speed="13.89" length="2.41" shape="2664.44,2414.87 2663.60,2416.10 2662.77,2416.51"/>
    </edge>
    <edge id=":180470875_16" function="internal">
        <lane id=":180470875_16_0" index="0" speed="13.89" length="5.24" shape="2662.75,2419.72 2660.69,2420.86 2657.82,2421.15"/>
    </edge>
    <edge id=":180470875_17" function="internal">
        <lane id=":180470875_17_0" index="0" speed="13.89" length="2.41" shape="2662.77,2416.51 2661.95,2416.08 2661.14,2414.84"/>
    </edge>
    <edge id=":180470875_8" function="internal">
        <lane id=":180470875_8_0" index="0" disallow="tram rail_urban rail rail_electric ship" speed="13.89" length="5.04" shape="2657.96,2417.86 2659.34,2417.72 2660.33,2417.17 2660.93,2416.21 2661.14,2414.84"/>
    </edge>
    <edge id=":180470875_9" function="internal">
        <lane id=":180470875_9_0" index="0" disallow="tram rail_urban rail rail_electric ship" speed="13.89" length="9.69" shape="2657.96,2417.86 2667.64,2418.25"/>
    </edge>
    <edge id=":180470875_10" function="internal">
        <lane id=":180470875_10_0" index="0" disallow="tram rail_urban rail rail_electric ship" speed="13.89" length="10.48" shape="2657.96,2417.86 2660.78,2418.38 2662.78,2419.67 2663.96,2421.73 2664.33,2424.57"/>
    </edge>
    <edge id=":180470875_11" function="internal">
        <lane id=":180470875_11_0" index="0" disallow="tram rail_urban rail rail_electric ship" speed="13.89" length="4.82" shape="2657.96,2417.86 2659.16,2418.73 2659.54,2419.57 2659.09,2420.38 2657.82,2421.15"/>
    </edge>
    <edge id=":180470875_12" function="internal">
        <lane id=":180470875_12_0" index="0" disallow="tram rail_urban rail rail_electric ship" speed="13.89" length="5.27" shape="2661.03,2424.53 2660.84,2423.10 2660.25,2422.07 2659.24,2421.42 2657.82,2421.15"/>
    </edge>
    <edge id=":180470875_13" function="internal">
        <lane id=":180470875_13_0" index="0" disallow="tram rail_urban rail rail_electric ship" speed="13.89" length="9.69" shape="2661.03,2424.53 2661.14,2414.84"/>
    </edge>
    <edge id=":180470875_14" function="internal">
        <lane id=":180470875_14_0" index="0" disallow="tram rail_urban rail rail_electric ship" speed="13.89" length="5.23" shape="2661.03,2424.53 2661.47,2421.68 2662.72,2419.69"/>
    </edge>
    <edge id=":180470875_15" function="internal">
        <lane id=":180470875_15_0" index="0" disallow="tram rail_urban rail rail_electric ship" speed="13.89" length="2.41" shape="2661.03,2424.53 2661.87,2423.30 2662.70,2422.90"/>
    </edge>
    <edge id=":180470875_18" function="internal">
        <lane id=":180470875_18_0" index="0" speed="13.89" length="5.23" shape="2662.72,2419.69 2664.78,2418.55 2667.64,2418.25"/>
    </edge>
    <edge id=":180470875_19" function="internal">
        <lane id=":180470875_19_0" index="0" speed="13.89" length="2.41" shape="2662.70,2422.90 2663.52,2423.32 2664.33,2424.57"/>
    </edge>
    <edge id=":180470881_0" function="internal">
        <lane id=":180470881_0_0" index="0" disallow="tram rail_urban rail rail_electric ship" speed="13.89" length="5.01" shape="2671.79,2014.50 2670.42,2014.67 2669.44,2015.23 2668.85,2016.19 2668.64,2017.55"/>
    </edge>
    <edge id=":180470881_1" function="internal">
        <lane id=":180470881_1_0" index="0" disallow="tram rail_urban rail rail_electric ship" speed="13.89" length="9.48" shape="2671.79,2014.50 2662.31,2014.24"/>
    </edge>
    <edge id=":180470881_2" function="internal">
        <lane id=":180470881_2_0" index="0" disallow="tram rail_urban rail rail_electric ship" speed="13.89" length="2.41" shape="2671.79,2014.50 2670.57,2013.65 2670.17,2012.82"/>
    </edge>
    <edge id=":180470881_9" function="internal">
        <lane id=":180470881_9_0" index="0" speed="13.89" length="2.41" shape="2670.17,2012.82 2670.60,2012.00 2671.86,2011.20"/>
    </edge>
    <edge id=":180470881_3" function="internal">
        <lane id=":180470881_3_0" index="0" disallow="tram rail_urban rail rail_electric ship" speed="13.89" length="9.44" shape="2662.42,2010.94 2671.86,2011.20"/>
    </edge>
    <edge id=":180470881_4" function="internal">
        <lane id=":180470881_4_0" index="0" disallow="tram rail_urban rail rail_electric ship" speed="13.89" length="5.12" shape="2662.42,2010.94 2665.17,2011.44 2667.12,2012.70"/>
    </edge>
    <edge id=":180470881_5" function="internal">
        <lane id=":180470881_5_0" index="0" disallow="tram rail_urban rail rail_electric ship" speed="13.89" length="2.41" shape="2662.42,2010.94 2663.63,2011.81 2664.02,2012.65"/>
    </edge>
    <edge id=":180470881_10" function="internal">
        <lane id=":180470881_10_0" index="0" speed="13.89" length="5.18" shape="2667.12,2012.70 2668.28,2014.74 2668.64,2017.55"/>
    </edge>
    <edge id=":180470881_11" function="internal">
        <lane id=":180470881_11_0" index="0" speed="13.89" length="2.41" shape="2664.02,2012.65 2663.58,2013.46 2662.31,2014.24"/>
    </edge>
    <edge id=":180470881_6" function="internal">
        <lane id=":180470881_6_0" index="0" disallow="tram rail_urban rail rail_electric ship" speed="13.89" length="5.06" shape="2665.34,2017.52 2665.16,2016.12 2664.60,2015.11 2663.65,2014.49 2662.31,2014.24"/>
    </edge>
    <edge id=":180470881_7" function="internal">
        <lane id=":180470881_7_0" index="0" disallow="tram rail_urban rail rail_electric ship" speed="13.89" length="10.37" shape="2665.34,2017.52 2665.77,2014.70 2667.00,2012.71 2669.03,2011.54 2671.86,2011.20"/>
    </edge>
    <edge id=":180470881_8" function="internal">
        <lane id=":180470881_8_0" index="0" disallow="tram rail_urban rail rail_electric ship" speed="13.89" length="4.82" shape="2665.34,2017.52 2666.18,2016.29 2667.01,2015.88 2667.83,2016.31 2668.64,2017.55"/>
    </edge>
    <edge id=":180504488_0" function="internal">
        <lane id=":180504488_0_0" index="0" disallow="tram rail_urban rail rail_electric ship" speed="27.78" length="4.82" shape="4154.51,3466.30 4153.67,3467.53 4152.84,3467.93 4152.02,3467.51 4151.21,3466.26"/>
    </edge>
    <edge id=":180504490_0" function="internal">
        <lane id=":180504490_0_0" index="0" disallow="tram rail_urban rail rail_electric ship" speed="27.78" length="4.02" shape="4147.93,3411.27 4144.63,3408.09"/>
        <lane id=":180504490_0_1" index="1" disallow="tram rail_urban rail rail_electric ship" speed="27.78" length="4.02" shape="4151.23,3411.21 4147.93,3408.16"/>
        <lane id=":180504490_0_2" index="2" disallow="tram rail_urban rail rail_electric ship" speed="27.78" length="4.02" shape="4151.23,3411.21 4151.23,3408.22"/>
    </edge>
    <edge id=":180504490_3" function="internal">
        <lane id=":180504490_3_0" index="0" disallow="tram rail_urban rail rail_electric ship" speed="27.78" length="4.29" shape="4161.13,3408.42 4157.83,3411.09"/>
        <lane id=":180504490_3_1" index="1" disallow="tram rail_urban rail rail_electric ship" speed="27.78" length="4.29" shape="4157.83,3408.36 4154.53,3411.15"/>
    </edge>
    <edge id=":180504492_0" function="internal">
        <lane id=":180504492_0_0" index="0" disallow="tram rail_urban rail rail_electric ship" speed="27.78" length="17.87" shape="4167.78,2866.30 4168.80,2871.54 4170.19,2875.03 4171.38,2878.53 4171.81,2883.79"/>
        <lane id=":180504492_0_1" index="1" disallow="tram rail_urban rail rail_electric ship" speed="27.78" length="17.87" shape="4164.50,2866.62 4165.51,2871.75 4166.89,2875.16 4168.08,2878.57 4168.51,2883.72"/>
    </edge>
    <edge id=":180504492_2" function="internal">
        <lane id=":180504492_2_0" index="0" disallow="tram rail_urban rail rail_electric ship" speed="27.78" length="8.32" shape="4164.50,2866.62 4164.14,2871.31 4162.17,2874.34"/>
    </edge>
    <edge id=":180504492_10" function="internal">
        <lane id=":180504492_10_0" index="0" speed="27.78" length="10.36" shape="4162.17,2874.34 4162.00,2874.60 4158.09,2876.49 4152.41,2876.97"/>
    </edge>
    <edge id=":180504492_3" function="internal">
        <lane id=":180504492_3_0" index="0" disallow="tram rail_urban rail rail_electric ship" speed="27.78" length="7.06" shape="4152.63,2870.37 4155.07,2870.25 4156.76,2869.69 4157.72,2868.69 4157.93,2867.26"/>
    </edge>
    <edge id=":180504492_4" function="internal">
        <lane id=":180504492_4_0" index="0" disallow="tram rail_urban rail rail_electric ship" speed="27.78" length="20.87" shape="4152.63,2870.37 4159.67,2871.41 4164.67,2873.98 4167.61,2878.09 4168.51,2883.72"/>
        <lane id=":180504492_4_1" index="1" disallow="tram rail_urban rail rail_electric ship" speed="27.78" length="20.87" shape="4152.52,2873.67 4158.14,2874.46 4162.13,2876.38 4164.49,2879.45 4165.21,2883.65"/>
    </edge>
    <edge id=":180504492_6" function="internal">
        <lane id=":180504492_6_0" index="0" disallow="tram rail_urban rail rail_electric ship" speed="27.78" length="2.41" shape="4152.52,2873.67 4153.73,2874.54 4154.11,2875.38"/>
    </edge>
    <edge id=":180504492_11" function="internal">
        <lane id=":180504492_11_0" index="0" speed="27.78" length="2.41" shape="4154.11,2875.38 4153.67,2876.19 4152.41,2876.97"/>
    </edge>
    <edge id=":180504492_7" function="internal">
        <lane id=":180504492_7_0" index="0" disallow="tram rail_urban rail rail_electric ship" speed="27.78" length="4.98" shape="4155.31,2883.45 4155.14,2882.10 4154.59,2881.12 4153.64,2880.51 4152.30,2880.27"/>
    </edge>
    <edge id=":180504492_8" function="internal">
        <lane id=":180504492_8_0" index="0" disallow="tram rail_urban rail rail_electric ship" speed="27.78" length="16.71" shape="4155.31,2883.45 4155.90,2878.61 4156.98,2875.34 4157.88,2872.08 4157.93,2867.26"/>
        <lane id=":180504492_8_1" index="1" disallow="tram rail_urban rail rail_electric ship" speed="27.78" length="16.71" shape="4158.61,2883.52 4159.20,2878.56 4160.28,2875.21 4161.17,2871.87 4161.22,2866.94"/>
    </edge>
    <edge id=":180504498_0" function="internal">
        <lane id=":180504498_0_0" index="0" disallow="tram rail_urban rail rail_electric ship" speed="20.84" length="7.33" shape="4071.20,2055.80 4070.72,2053.70 4069.81,2052.19 4068.48,2051.25 4066.73,2050.89"/>
    </edge>
    <edge id=":180504498_1" function="internal">
        <lane id=":180504498_1_0" index="0" disallow="tram rail_urban rail rail_electric ship" speed="27.78" length="11.57" shape="4071.20,2055.80 4069.78,2044.35"/>
        <lane id=":180504498_1_1" index="1" disallow="tram rail_urban rail rail_electric ship" speed="27.78" length="11.57" shape="4074.48,2055.43 4073.05,2043.91"/>
    </edge>
    <edge id=":180504498_3" function="internal">
        <lane id=":180504498_3_0" index="0" disallow="tram rail_urban rail rail_electric ship" speed="20.84" length="4.79" shape="4074.48,2055.43 4074.76,2052.13 4075.64,2050.94"/>
    </edge>
    <edge id=":180504498_4" function="internal">
        <lane id=":180504498_4_0" index="0" disallow="tram rail_urban rail rail_electric ship" speed="27.78" length="2.41" shape="4074.48,2055.43 4075.16,2054.11 4075.94,2053.61"/>
    </edge>
    <edge id=":180504498_15" function="internal">