<?xml version="1.0" encoding="UTF-8"?>

<!-- generated on 2/2/2017 5:38:48 PM by Netedit Version 0.27.1
<?xml version="1.0" encoding="UTF-8"?>

<configuration xmlns:xsi="http://www.w3.org/2001/XMLSchema-instance" xsi:noNamespaceSchemaLocation="http://sumo.dlr.de/xsd/netedit.exeConfiguration.xsd">

    <input>
        <sumo-net-file value="C:\Users\Shekar\Documents\GitHub\sumo_sim\sioux_falls\network\sf_net.net.xml"/>
    </input>

    <output>
        <output-file value="C:\Users\Shekar\Documents\GitHub\sumo_sim\sioux_falls\network\sf_net.net.xml"/>
    </output>

    <processing>
        <no-turnarounds value="true"/>
        <offset.disable-normalization value="true"/>
        <lefthand value="false"/>
        <junctions.corner-detail value="0"/>
    </processing>

</configuration>
-->

<net version="0.27" xmlns:xsi="http://www.w3.org/2001/XMLSchema-instance" xsi:noNamespaceSchemaLocation="http://sumo.dlr.de/xsd/net_file.xsd">

    <location netOffset="-1000.00,-1000.00" convBoundary="0.00,0.00,7400.00,9200.00" origBoundary="0.00,1000.00,8400.00,11000.00" projParameter="!"/>

    <edge id=":1_0" function="internal">
        <lane id=":1_0_0" index="0" speed="25.38" length="7.90" shape="3.25,9201.65 1.11,9201.34 -0.42,9200.42 -1.34,9198.89 -1.65,9196.75"/>
    </edge>
    <edge id=":1_1" function="internal">
        <lane id=":1_1_0" index="0" speed="25.19" length="2.80" shape="3.25,9201.65 2.01,9200.82 1.60,9200.00 1.77,9199.65"/>
    </edge>
    <edge id=":1_4" function="internal">
        <lane id=":1_4_0" index="0" speed="25.19" length="2.02" shape="1.77,9199.65 2.01,9199.18 3.25,9198.35"/>
    </edge>
    <edge id=":1_2" function="internal">
        <lane id=":1_2_0" index="0" speed="25.38" length="2.58" shape="1.65,9196.75 1.75,9197.45 2.05,9197.95 2.55,9198.25 3.25,9198.35"/>
    </edge>
    <edge id=":1_3" function="internal">
        <lane id=":1_3_0" index="0" speed="25.56" length="2.20" shape="1.65,9196.75 0.82,9197.99 0.19,9198.31"/>
    </edge>
    <edge id=":1_5" function="internal">
        <lane id=":1_5_0" index="0" speed="25.56" length="2.62" shape="0.19,9198.31 0.00,9198.40 -0.82,9197.99 -1.65,9196.75"/>
    </edge>
    <edge id=":10_0" function="internal">
        <lane id=":10_0_0" index="0" speed="6.52" length="5.00" shape="3398.35,5404.75 3398.16,5403.39 3397.57,5402.42 3396.61,5401.84 3395.25,5401.65"/>
    </edge>
    <edge id=":10_1" function="internal">
        <lane id=":10_1_0" index="0" speed="7.04" length="11.99" shape="3398.35,5404.75 3398.35,5392.76"/>
    </edge>
    <edge id=":10_2" function="internal">
        <lane id=":10_2_0" index="0" speed="7.41" length="18.37" shape="3398.35,5404.75 3399.11,5401.81 3401.39,5398.66 3405.18,5395.32 3410.50,5391.78"/>
    </edge>
    <edge id=":10_3" function="internal">
        <lane id=":10_3_0" index="0" speed="9.07" length="17.71" shape="3398.35,5404.75 3399.28,5401.95 3402.07,5399.95 3406.72,5398.75 3413.23,5398.35"/>
    </edge>
    <edge id=":10_4" function="internal">
        <lane id=":10_4_0" index="0" speed="5.93" length="4.82" shape="3398.35,5404.75 3399.17,5403.51 3400.00,5403.10 3400.82,5403.51 3401.65,5404.75"/>
    </edge>
    <edge id=":10_5" function="internal">
        <lane id=":10_5_0" index="0" speed="9.07" length="12.65" shape="3413.23,5401.65 3408.17,5401.84 3404.55,5402.42 3402.37,5403.39 3401.65,5404.75"/>
    </edge>
    <edge id=":10_6" function="internal">
        <lane id=":10_6_0" index="0" speed="9.67" length="17.98" shape="3413.23,5401.65 3395.25,5401.65"/>
    </edge>
    <edge id=":10_7" function="internal">
        <lane id=":10_7_0" index="0" speed="10.19" length="9.93" shape="3413.23,5401.65 3406.72,5401.09 3403.53,5399.95"/>
    </edge>
    <edge id=":10_8" function="internal">
        <lane id=":10_8_0" index="0" speed="10.56" length="9.41" shape="3413.23,5401.65 3405.87,5401.03 3404.16,5399.95"/>
    </edge>
    <edge id=":10_9" function="internal">
        <lane id=":10_9_0" index="0" speed="12.22" length="2.41" shape="3413.23,5401.65 3412.00,5400.83 3411.58,5400.00"/>
    </edge>
    <edge id=":10_25" function="internal">
        <lane id=":10_25_0" index="0" speed="10.19" length="9.49" shape="3403.53,5399.95 3402.07,5399.43 3399.28,5396.65 3398.35,5392.76"/>
    </edge>
    <edge id=":10_26" function="internal">
        <lane id=":10_26_0" index="0" speed="10.56" length="12.28" shape="3404.16,5399.95 3402.95,5399.18 3404.50,5396.10 3410.50,5391.78"/>
    </edge>
    <edge id=":10_27" function="internal">
        <lane id=":10_27_0" index="0" speed="12.22" length="2.41" shape="3411.58,5400.00 3412.00,5399.18 3413.23,5398.35"/>
    </edge>
    <edge id=":10_10" function="internal">
        <lane id=":10_10_0" index="0" speed="10.56" length="8.22" shape="3412.20,5394.61 3409.92,5396.24 3409.34,5397.41 3410.44,5398.12 3413.23,5398.35"/>
    </edge>
    <edge id=":10_11" function="internal">
        <lane id=":10_11_0" index="0" speed="7.41" length="15.02" shape="3412.20,5394.61 3407.58,5397.61 3404.29,5400.31 3402.31,5402.69 3401.65,5404.75"/>
    </edge>
    <edge id=":10_12" function="internal">
        <lane id=":10_12_0" index="0" speed="8.00" length="18.51" shape="3412.20,5394.61 3408.44,5396.79 3403.99,5399.09 3399.40,5400.91 3395.25,5401.65"/>
    </edge>
    <edge id=":10_13" function="internal">
        <lane id=":10_13_0" index="0" speed="8.52" length="18.22" shape="3412.20,5394.61 3406.14,5397.61 3401.81,5398.30 3399.22,5396.68 3398.35,5392.76"/>
    </edge>
    <edge id=":10_14" function="internal">
        <lane id=":10_14_0" index="0" speed="8.89" length="4.82" shape="3412.20,5394.61 3410.71,5394.54 3409.93,5394.04 3409.86,5393.12 3410.50,5391.78"/>
    </edge>
    <edge id=":10_15" function="internal">
        <lane id=":10_15_0" index="0" speed="8.52" length="10.63" shape="3401.65,5392.76 3402.20,5394.32 3403.86,5394.68 3406.63,5393.83 3410.50,5391.78"/>
    </edge>
    <edge id=":10_16" function="internal">
        <lane id=":10_16_0" index="0" speed="10.19" length="14.19" shape="3401.65,5392.76 3402.37,5395.21 3404.55,5396.95 3408.17,5398.00 3413.23,5398.35"/>
    </edge>
    <edge id=":10_17" function="internal">
        <lane id=":10_17_0" index="0" speed="7.04" length="11.99" shape="3401.65,5392.76 3401.65,5404.75"/>
    </edge>
    <edge id=":10_18" function="internal">
        <lane id=":10_18_0" index="0" speed="7.63" length="12.39" shape="3401.65,5392.76 3401.25,5396.65 3400.05,5399.43 3398.05,5401.09 3395.25,5401.65"/>
    </edge>
    <edge id=":10_19" function="internal">
        <lane id=":10_19_0" index="0" speed="8.15" length="4.82" shape="3401.65,5392.76 3400.83,5394.00 3400.00,5394.41 3399.18,5394.00 3398.35,5392.76"/>
    </edge>
    <edge id=":10_20" function="internal">
        <lane id=":10_20_0" index="0" speed="7.63" length="7.12" shape="3395.25,5398.35 3396.61,5398.00 3397.58,5396.95 3398.16,5395.21 3398.35,5392.76"/>
    </edge>
    <edge id=":10_21" function="internal">
        <lane id=":10_21_0" index="0" speed="8.00" length="16.78" shape="3395.25,5398.35 3399.14,5397.68 3403.14,5396.03 3407.01,5393.89 3410.50,5391.78"/>
    </edge>
    <edge id=":10_22" function="internal">
        <lane id=":10_22_0" index="0" speed="9.67" length="17.98" shape="3395.25,5398.35 3413.23,5398.35"/>
    </edge>
    <edge id=":10_23" function="internal">
        <lane id=":10_23_0" index="0" speed="6.52" length="5.28" shape="3395.25,5398.35 3398.05,5398.75 3400.05,5399.95 3400.11,5400.05"/>
    </edge>
    <edge id=":10_24" function="internal">
        <lane id=":10_24_0" index="0" speed="7.11" length="2.41" shape="3395.25,5398.35 3396.49,5399.17 3396.90,5400.00"/>
    </edge>
    <edge id=":10_28" function="internal">
        <lane id=":10_28_0" index="0" speed="6.52" length="5.04" shape="3400.11,5400.05 3401.25,5401.95 3401.65,5404.75"/>
    </edge>
    <edge id=":10_29" function="internal">
        <lane id=":10_29_0" index="0" speed="7.11" length="2.41" shape="3396.90,5400.00 3396.49,5400.82 3395.25,5401.65"/>
    </edge>
    <edge id=":11_0" function="internal">
        <lane id=":11_0_0" index="0" speed="12.96" length="5.00" shape="1598.35,5404.75 1598.16,5403.39 1597.57,5402.42 1596.61,5401.84 1595.25,5401.65"/>
    </edge>
    <edge id=":11_1" function="internal">
        <lane id=":11_1_0" index="0" speed="10.56" length="9.50" shape="1598.35,5404.75 1598.35,5395.25"/>
    </edge>
    <edge id=":11_2" function="internal">
        <lane id=":11_2_0" index="0" speed="9.11" length="10.32" shape="1598.35,5404.75 1598.75,5401.95 1599.95,5399.95 1601.95,5398.75 1604.75,5398.35"/>
    </edge>
    <edge id=":11_3" function="internal">
        <lane id=":11_3_0" index="0" speed="11.11" length="4.82" shape="1598.35,5404.75 1599.18,5403.51 1600.00,5403.10 1600.83,5403.51 1601.65,5404.75"/>
    </edge>
    <edge id=":11_4" function="internal">
        <lane id=":11_4_0" index="0" speed="9.11" length="5.00" shape="1604.75,5401.65 1603.39,5401.84 1602.43,5402.42 1601.84,5403.39 1601.65,5404.75"/>
    </edge>
    <edge id=":11_5" function="internal">
        <lane id=":11_5_0" index="0" speed="10.96" length="9.50" shape="1604.75,5401.65 1595.25,5401.65"/>
    </edge>
    <edge id=":11_6" function="internal">
        <lane id=":11_6_0" index="0" speed="8.55" length="5.28" shape="1604.75,5401.65 1601.95,5401.25 1599.95,5400.05 1599.89,5399.95"/>
    </edge>
    <edge id=":11_7" function="internal">
        <lane id=":11_7_0" index="0" speed="7.11" length="2.41" shape="1604.75,5401.65 1603.51,5400.83 1603.10,5400.00"/>
    </edge>
    <edge id=":11_16" function="internal">
        <lane id=":11_16_0" index="0" speed="8.55" length="5.04" shape="1599.89,5399.95 1598.75,5398.05 1598.35,5395.25"/>
    </edge>
    <edge id=":11_17" function="internal">
        <lane id=":11_17_0" index="0" speed="7.11" length="2.41" shape="1603.10,5400.00 1603.51,5399.18 1604.75,5398.35"/>
    </edge>
    <edge id=":11_8" function="internal">
        <lane id=":11_8_0" index="0" speed="8.55" length="5.00" shape="1601.65,5395.25 1601.84,5396.61 1602.43,5397.58 1603.39,5398.16 1604.75,5398.35"/>
    </edge>
    <edge id=":11_9" function="internal">
        <lane id=":11_9_0" index="0" speed="10.56" length="9.50" shape="1601.65,5395.25 1601.65,5404.75"/>
    </edge>
    <edge id=":11_10" function="internal">
        <lane id=":11_10_0" index="0" speed="12.41" length="10.32" shape="1601.65,5395.25 1601.25,5398.05 1600.05,5400.05 1598.05,5401.25 1595.25,5401.65"/>
    </edge>
    <edge id=":11_11" function="internal">
        <lane id=":11_11_0" index="0" speed="10.00" length="4.82" shape="1601.65,5395.25 1600.82,5396.49 1600.00,5396.90 1599.18,5396.49 1598.35,5395.25"/>
    </edge>
    <edge id=":11_12" function="internal">
        <lane id=":11_12_0" index="0" speed="12.41" length="5.00" shape="1595.25,5398.35 1596.61,5398.16 1597.57,5397.58 1598.16,5396.61 1598.35,5395.25"/>
    </edge>
    <edge id=":11_13" function="internal">
        <lane id=":11_13_0" index="0" speed="10.96" length="9.50" shape="1595.25,5398.35 1604.75,5398.35"/>
    </edge>
    <edge id=":11_14" function="internal">
        <lane id=":11_14_0" index="0" speed="12.96" length="5.28" shape="1595.25,5398.35 1598.05,5398.75 1600.05,5399.95 1600.11,5400.05"/>
    </edge>
    <edge id=":11_15" function="internal">
        <lane id=":11_15_0" index="0" speed="14.81" length="2.41" shape="1595.25,5398.35 1596.49,5399.17 1596.90,5400.00"/>
    </edge>
    <edge id=":11_18" function="internal">
        <lane id=":11_18_0" index="0" speed="12.96" length="5.04" shape="1600.11,5400.05 1601.25,5401.95 1601.65,5404.75"/>
    </edge>
    <edge id=":11_19" function="internal">
        <lane id=":11_19_0" index="0" speed="14.81" length="2.41" shape="1596.90,5400.00 1596.49,5400.82 1595.25,5401.65"/>
    </edge>
    <edge id=":12_0" function="internal">
        <lane id=":12_0_0" index="0" speed="28.15" length="9.50" shape="-1.65,5404.75 -1.65,5395.25"/>
    </edge>
    <edge id=":12_1" function="internal">
        <lane id=":12_1_0" index="0" speed="20.74" length="5.28" shape="-1.65,5404.75 -1.25,5401.95 -0.05,5399.95 0.05,5399.89"/>
    </edge>
    <edge id=":12_2" function="internal">
        <lane id=":12_2_0" index="0" speed="26.67" length="2.41" shape="-1.65,5404.75 -0.83,5403.51 0.00,5403.10"/>
    </edge>
    <edge id=":12_9" function="internal">
        <lane id=":12_9_0" index="0" speed="20.74" length="5.04" shape="0.05,5399.89 1.95,5398.75 4.75,5398.35"/>
    </edge>
    <edge id=":12_10" function="internal">
        <lane id=":12_10_0" index="0" speed="26.67" length="2.41" shape="0.00,5403.10 0.83,5403.51 1.65,5404.75"/>
    </edge>
    <edge id=":12_3" function="internal">
        <lane id=":12_3_0" index="0" speed="20.74" length="5.00" shape="4.75,5401.65 3.39,5401.84 2.42,5402.42 1.84,5403.39 1.65,5404.75"/>
    </edge>
    <edge id=":12_4" function="internal">
        <lane id=":12_4_0" index="0" speed="22.22" length="10.32" shape="4.75,5401.65 1.95,5401.25 -0.05,5400.05 -1.25,5398.05 -1.65,5395.25"/>
    </edge>
    <edge id=":12_5" function="internal">
        <lane id=":12_5_0" index="0" speed="14.81" length="4.82" shape="4.75,5401.65 3.51,5400.83 3.10,5400.00 3.51,5399.18 4.75,5398.35"/>
    </edge>
    <edge id=":12_6" function="internal">
        <lane id=":12_6_0" index="0" speed="22.22" length="5.00" shape="1.65,5395.25 1.84,5396.61 2.43,5397.58 3.39,5398.16 4.75,5398.35"/>
    </edge>
    <edge id=":12_7" function="internal">
        <lane id=":12_7_0" index="0" speed="28.15" length="9.50" shape="1.65,5395.25 1.65,5404.75"/>
    </edge>
    <edge id=":12_8" function="internal">
        <lane id=":12_8_0" index="0" speed="29.63" length="2.41" shape="1.65,5395.25 0.83,5396.49 0.00,5396.90"/>
    </edge>
    <edge id=":12_11" function="internal">
        <lane id=":12_11_0" index="0" speed="29.63" length="2.41" shape="0.00,5396.90 -0.83,5396.49 -1.65,5395.25"/>
    </edge>
    <edge id=":13_0" function="internal">
        <lane id=":13_0_0" index="0" speed="23.15" length="7.90" shape="-1.65,3.25 -1.34,1.11 -0.43,-0.42 1.11,-1.34 3.25,-1.65"/>
    </edge>
    <edge id=":13_1" function="internal">
        <lane id=":13_1_0" index="0" speed="29.63" length="4.82" shape="-1.65,3.25 -0.83,2.01 0.00,1.60 0.83,2.01 1.65,3.25"/>
    </edge>
    <edge id=":13_2" function="internal">
        <lane id=":13_2_0" index="0" speed="23.15" length="2.58" shape="3.25,1.65 2.55,1.75 2.05,2.05 1.75,2.55 1.65,3.25"/>
    </edge>
    <edge id=":13_3" function="internal">
        <lane id=":13_3_0" index="0" speed="16.67" length="4.82" shape="3.25,1.65 2.01,0.83 1.60,0.00 2.01,-0.82 3.25,-1.65"/>
    </edge>
    <edge id=":14_0" function="internal">
        <lane id=":14_0_0" index="0" speed="10.00" length="9.50" shape="1598.35,2804.75 1598.35,2795.25"/>
    </edge>
    <edge id=":14_1" function="internal">
        <lane id=":14_1_0" index="0" speed="9.89" length="10.32" shape="1598.35,2804.75 1598.75,2801.95 1599.95,2799.95 1601.95,2798.75 1604.75,2798.35"/>
    </edge>
    <edge id=":14_2" function="internal">
        <lane id=":14_2_0" index="0" speed="10.00" length="4.82" shape="1598.35,2804.75 1599.18,2803.51 1600.00,2803.10 1600.83,2803.51 1601.65,2804.75"/>
    </edge>
    <edge id=":14_3" function="internal">
        <lane id=":14_3_0" index="0" speed="9.89" length="5.00" shape="1604.75,2801.65 1603.39,2801.84 1602.43,2802.43 1601.84,2803.39 1601.65,2804.75"/>
    </edge>
    <edge id=":14_4" function="internal">
        <lane id=":14_4_0" index="0" speed="9.89" length="10.32" shape="1604.75,2801.65 1601.95,2801.25 1599.95,2800.05 1598.75,2798.05 1598.35,2795.25"/>
    </edge>
    <edge id=":14_5" function="internal">
        <lane id=":14_5_0" index="0" speed="9.78" length="4.82" shape="1604.75,2801.65 1603.51,2800.83 1603.10,2800.00 1603.51,2799.18 1604.75,2798.35"/>
    </edge>
    <edge id=":14_6" function="internal">
        <lane id=":14_6_0" index="0" speed="9.89" length="5.00" shape="1601.65,2795.25 1601.84,2796.61 1602.43,2797.58 1603.39,2798.16 1604.75,2798.35"/>
    </edge>
    <edge id=":14_7" function="internal">
        <lane id=":14_7_0" index="0" speed="10.00" length="9.50" shape="1601.65,2795.25 1601.65,2804.75"/>
    </edge>
    <edge id=":14_8" function="internal">
        <lane id=":14_8_0" index="0" speed="10.00" length="4.82" shape="1601.65,2795.25 1600.82,2796.49 1600.00,2796.90 1599.18,2796.49 1598.35,2795.25"/>
    </edge>
    <edge id=":15_0" function="internal">
        <lane id=":15_0_0" index="0" speed="8.96" length="5.00" shape="3398.35,2804.75 3398.16,2803.39 3397.57,2802.42 3396.61,2801.84 3395.25,2801.65"/>
    </edge>
    <edge id=":15_1" function="internal">
        <lane id=":15_1_0" index="0" speed="12.97" length="9.50" shape="3398.35,2804.75 3398.35,2795.25"/>
    </edge>
    <edge id=":15_2" function="internal">
        <lane id=":15_2_0" index="0" speed="12.23" length="5.28" shape="3398.35,2804.75 3398.75,2801.95 3399.95,2799.95 3400.05,2799.89"/>
    </edge>
    <edge id=":15_3" function="internal">
        <lane id=":15_3_0" index="0" speed="8.15" length="2.41" shape="3398.35,2804.75 3399.17,2803.51 3400.00,2803.10"/>
    </edge>
    <edge id=":15_16" function="internal">
        <lane id=":15_16_0" index="0" speed="12.23" length="5.04" shape="3400.05,2799.89 3401.95,2798.75 3404.75,2798.35"/>
    </edge>
    <edge id=":15_17" function="internal">
        <lane id=":15_17_0" index="0" speed="8.15" length="2.41" shape="3400.00,2803.10 3400.82,2803.51 3401.65,2804.75"/>
    </edge>
    <edge id=":15_4" function="internal">
        <lane id=":15_4_0" index="0" speed="12.23" length="5.00" shape="3404.75,2801.65 3403.39,2801.84 3402.42,2802.43 3401.84,2803.39 3401.65,2804.75"/>
    </edge>
    <edge id=":15_5" function="internal">
        <lane id=":15_5_0" index="0" speed="13.04" length="9.50" shape="3404.75,2801.65 3395.25,2801.65"/>
    </edge>
    <edge id=":15_6" function="internal">
        <lane id=":15_6_0" index="0" speed="17.04" length="10.32" shape="3404.75,2801.65 3401.95,2801.25 3399.95,2800.05 3398.75,2798.05 3398.35,2795.25"/>
    </edge>
    <edge id=":15_7" function="internal">
        <lane id=":15_7_0" index="0" speed="16.30" length="4.82" shape="3404.75,2801.65 3403.51,2800.83 3403.10,2800.00 3403.51,2799.18 3404.75,2798.35"/>
    </edge>
    <edge id=":15_8" function="internal">
        <lane id=":15_8_0" index="0" speed="17.04" length="5.00" shape="3401.65,2795.25 3401.84,2796.61 3402.43,2797.58 3403.39,2798.16 3404.75,2798.35"/>
    </edge>
    <edge id=":15_9" function="internal">
        <lane id=":15_9_0" index="0" speed="12.97" length="9.50" shape="3401.65,2795.25 3401.65,2804.75"/>
    </edge>
    <edge id=":15_10" function="internal">
        <lane id=":15_10_0" index="0" speed="13.78" length="5.28" shape="3401.65,2795.25 3401.25,2798.05 3400.05,2800.05 3399.95,2800.11"/>
    </edge>
    <edge id=":15_11" function="internal">
        <lane id=":15_11_0" index="0" speed="17.78" length="2.41" shape="3401.65,2795.25 3400.83,2796.49 3400.00,2796.90"/>
    </edge>
    <edge id=":15_18" function="internal">
        <lane id=":15_18_0" index="0" speed="13.78" length="5.04" shape="3399.95,2800.11 3398.05,2801.25 3395.25,2801.65"/>
    </edge>
    <edge id=":15_19" function="internal">
        <lane id=":15_19_0" index="0" speed="17.78" length="2.41" shape="3400.00,2796.90 3399.18,2796.49 3398.35,2795.25"/>
    </edge>
    <edge id=":15_12" function="internal">
        <lane id=":15_12_0" index="0" speed="13.78" length="5.00" shape="3395.25,2798.35 3396.61,2798.16 3397.58,2797.57 3398.16,2796.61 3398.35,2795.25"/>
    </edge>
    <edge id=":15_13" function="internal">
        <lane id=":15_13_0" index="0" speed="13.04" length="9.50" shape="3395.25,2798.35 3404.75,2798.35"/>
    </edge>
    <edge id=":15_14" function="internal">
        <lane id=":15_14_0" index="0" speed="8.96" length="10.32" shape="3395.25,2798.35 3398.05,2798.75 3400.05,2799.95 3401.25,2801.95 3401.65,2804.75"/>
    </edge>
    <edge id=":15_15" function="internal">
        <lane id=":15_15_0" index="0" speed="9.78" length="4.82" shape="3395.25,2798.35 3396.49,2799.17 3396.90,2800.00 3396.49,2800.82 3395.25,2801.65"/>
    </edge>
    <edge id=":16_0" function="internal">
        <lane id=":16_0_0" index="0" speed="11.45" length="5.00" shape="5398.35,5404.75 5398.16,5403.39 5397.58,5402.42 5396.61,5401.84 5395.25,5401.65"/>
    </edge>
    <edge id=":16_1" function="internal">
        <lane id=":16_1_0" index="0" speed="23.12" length="9.50" shape="5398.35,5404.75 5398.35,5395.25"/>
    </edge>
    <edge id=":16_2" function="internal">
        <lane id=":16_2_0" index="0" speed="12.00" length="5.28" shape="5398.35,5404.75 5398.75,5401.95 5399.95,5399.95 5400.05,5399.89"/>
    </edge>
    <edge id=":16_3" function="internal">
        <lane id=":16_3_0" index="0" speed="10.67" length="2.41" shape="5398.35,5404.75 5399.17,5403.51 5400.00,5403.10"/>
    </edge>
    <edge id=":16_16" function="internal">
        <lane id=":16_16_0" index="0" speed="12.00" length="5.04" shape="5400.05,5399.89 5401.95,5398.75 5404.75,5398.35"/>
    </edge>
    <edge id=":16_17" function="internal">
        <lane id=":16_17_0" index="0" speed="10.67" length="2.41" shape="5400.00,5403.10 5400.82,5403.51 5401.65,5404.75"/>
    </edge>
    <edge id=":16_4" function="internal">
        <lane id=":16_4_0" index="0" speed="12.00" length="5.00" shape="5404.75,5401.65 5403.39,5401.84 5402.42,5402.42 5401.84,5403.39 5401.65,5404.75"/>
    </edge>
    <edge id=":16_5" function="internal">
        <lane id=":16_5_0" index="0" speed="12.78" length="9.50" shape="5404.75,5401.65 5395.25,5401.65"/>
    </edge>
    <edge id=":16_6" function="internal">
        <lane id=":16_6_0" index="0" speed="24.45" length="10.32" shape="5404.75,5401.65 5401.95,5401.25 5399.95,5400.05 5398.75,5398.05 5398.35,5395.25"/>
    </edge>
    <edge id=":16_7" function="internal">
        <lane id=":16_7_0" index="0" speed="13.33" length="4.82" shape="5404.75,5401.65 5403.51,5400.83 5403.10,5400.00 5403.51,5399.18 5404.75,5398.35"/>
    </edge>
    <edge id=":16_8" function="internal">
        <lane id=":16_8_0" index="0" speed="24.45" length="5.00" shape="5401.65,5395.25 5401.84,5396.61 5402.42,5397.58 5403.39,5398.16 5404.75,5398.35"/>
    </edge>
    <edge id=":16_9" function="internal">
        <lane id=":16_9_0" index="0" speed="23.12" length="9.50" shape="5401.65,5395.25 5401.65,5404.75"/>
    </edge>
    <edge id=":16_10" function="internal">
        <lane id=":16_10_0" index="0" speed="23.89" length="5.28" shape="5401.65,5395.25 5401.25,5398.05 5400.05,5400.05 5399.95,5400.11"/>
    </edge>
    <edge id=":16_11" function="internal">
        <lane id=":16_11_0" index="0" speed="35.56" length="2.41" shape="5401.65,5395.25 5400.83,5396.49 5400.00,5396.90"/>
    </edge>
    <edge id=":16_18" function="internal">
        <lane id=":16_18_0" index="0" speed="23.89" length="5.04" shape="5399.95,5400.11 5398.05,5401.25 5395.25,5401.65"/>
    </edge>
    <edge id=":16_19" function="internal">
        <lane id=":16_19_0" index="0" speed="35.56" length="2.41" shape="5400.00,5396.90 5399.18,5396.49 5398.35,5395.25"/>
    </edge>
    <edge id=":16_12" function="internal">
        <lane id=":16_12_0" index="0" speed="23.89" length="5.00" shape="5395.25,5398.35 5396.61,5398.16 5397.58,5397.58 5398.16,5396.61 5398.35,5395.25"/>
    </edge>
    <edge id=":16_13" function="internal">
        <lane id=":16_13_0" index="0" speed="12.78" length="9.50" shape="5395.25,5398.35 5404.75,5398.35"/>
    </edge>
    <edge id=":16_14" function="internal">
        <lane id=":16_14_0" index="0" speed="11.45" length="10.32" shape="5395.25,5398.35 5398.05,5398.75 5400.05,5399.95 5401.25,5401.95 5401.65,5404.75"/>
    </edge>
    <edge id=":16_15" function="internal">
        <lane id=":16_15_0" index="0" speed="12.22" length="4.82" shape="5395.25,5398.35 5396.49,5399.17 5396.90,5400.00 5396.49,5400.82 5395.25,5401.65"/>
    </edge>
    <edge id=":17_0" function="internal">
        <lane id=":17_0_0" index="0" speed="22.23" length="5.87" shape="5398.35,4207.24 5398.12,4205.49 5397.42,4204.55 5396.26,4204.44 5394.64,4205.14"/>
    </edge>
    <edge id=":17_1" function="internal">
        <lane id=":17_1_0" index="0" speed="24.45" length="10.58" shape="5398.35,4207.24 5398.35,4196.66"/>
    </edge>
    <edge id=":17_2" function="internal">
        <lane id=":17_2_0" index="0" speed="35.56" length="2.41" shape="5398.35,4207.24 5399.17,4206.00 5400.00,4205.59"/>
    </edge>
    <edge id=":17_9" function="internal">
        <lane id=":17_9_0" index="0" speed="35.56" length="2.41" shape="5400.00,4205.59 5400.82,4206.00 5401.65,4207.24"/>
    </edge>
    <edge id=":17_3" function="internal">
        <lane id=":17_3_0" index="0" speed="24.45" length="10.58" shape="5401.65,4196.66 5401.65,4207.24"/>
    </edge>
    <edge id=":17_4" function="internal">
        <lane id=":17_4_0" index="0" speed="11.11" length="4.68" shape="5401.65,4196.66 5401.21,4198.79 5399.90,4200.92"/>
    </edge>
    <edge id=":17_5" function="internal">
        <lane id=":17_5_0" index="0" speed="13.33" length="2.41" shape="5401.65,4196.66 5400.83,4197.90 5400.00,4198.31"/>
    </edge>
    <edge id=":17_10" function="internal">
        <lane id=":17_10_0" index="0" speed="11.11" length="6.77" shape="5399.90,4200.92 5397.71,4203.03 5394.64,4205.14"/>
    </edge>
    <edge id=":17_11" function="internal">
        <lane id=":17_11_0" index="0" speed="13.33" length="2.41" shape="5400.00,4198.31 5399.18,4197.90 5398.35,4196.66"/>
    </edge>
    <edge id=":17_6" function="internal">
        <lane id=":17_6_0" index="0" speed="11.11" length="8.07" shape="5392.94,4202.31 5395.31,4200.74 5397.00,4199.28 5398.01,4197.92 5398.35,4196.66"/>
    </edge>
    <edge id=":17_7" function="internal">
        <lane id=":17_7_0" index="0" speed="22.23" length="13.77" shape="5392.94,4202.31 5396.75,4200.66 5399.47,4200.93 5401.11,4203.12 5401.65,4207.24"/>
    </edge>
    <edge id=":17_8" function="internal">
        <lane id=":17_8_0" index="0" speed="8.89" length="4.82" shape="5392.94,4202.31 5394.43,4202.38 5395.21,4202.88 5395.28,4203.80 5394.64,4205.14"/>
    </edge>
    <edge id=":18_0" function="internal">
        <lane id=":18_0_0" index="0" speed="20.00" length="6.19" shape="7398.35,5404.75 7398.07,5403.39 7397.22,5402.42 7395.81,5401.84 7393.83,5401.65"/>
    </edge>
    <edge id=":18_1" function="internal">
        <lane id=":18_1_0" index="0" speed="27.23" length="10.27" shape="7398.35,5404.75 7398.28,5401.74 7397.98,5399.65 7397.36,5397.62 7396.31,5394.79"/>
    </edge>
    <edge id=":18_2" function="internal">
        <lane id=":18_2_0" index="0" speed="26.67" length="2.41" shape="7398.35,5404.75 7399.18,5403.51 7400.00,5403.10"/>
    </edge>
    <edge id=":18_9" function="internal">
        <lane id=":18_9_0" index="0" speed="26.67" length="2.41" shape="7400.00,5403.10 7400.82,5403.51 7401.65,5404.75"/>
    </edge>
    <edge id=":18_3" function="internal">
        <lane id=":18_3_0" index="0" speed="27.23" length="11.42" shape="7399.40,5393.64 7400.49,5396.65 7401.18,5399.08 7401.54,5401.56 7401.65,5404.75"/>
    </edge>
    <edge id=":18_4" function="internal">
        <lane id=":18_4_0" index="0" speed="20.56" length="5.92" shape="7399.40,5393.64 7400.17,5397.15 7399.56,5399.40"/>
    </edge>
    <edge id=":18_5" function="internal">
        <lane id=":18_5_0" index="0" speed="27.78" length="2.41" shape="7399.40,5393.64 7399.06,5395.09 7398.43,5395.76"/>
    </edge>
    <edge id=":18_10" function="internal">
        <lane id=":18_10_0" index="0" speed="20.56" length="6.44" shape="7399.56,5399.40 7399.49,5399.65 7397.38,5401.15 7393.83,5401.65"/>
    </edge>
    <edge id=":18_11" function="internal">
        <lane id=":18_11_0" index="0" speed="27.78" length="2.41" shape="7398.43,5395.76 7397.51,5395.66 7396.31,5394.79"/>
    </edge>
    <edge id=":18_6" function="internal">
        <lane id=":18_6_0" index="0" speed="20.56" length="5.50" shape="7393.83,5398.35 7395.41,5398.13 7396.35,5397.46 7396.65,5396.35 7396.31,5394.79"/>
    </edge>
    <edge id=":18_7" function="internal">
        <lane id=":18_7_0" index="0" speed="20.00" length="11.49" shape="7393.83,5398.35 7397.25,5398.75 7399.70,5399.95 7401.16,5401.95 7401.65,5404.75"/>
    </edge>
    <edge id=":18_8" function="internal">
        <lane id=":18_8_0" index="0" speed="13.33" length="4.82" shape="7393.83,5398.35 7395.07,5399.17 7395.48,5400.00 7395.07,5400.82 7393.83,5401.65"/>
    </edge>
    <edge id=":19_0" function="internal">
        <lane id=":19_0_0" index="0" speed="14.82" length="5.00" shape="5398.35,2804.75 5398.16,2803.39 5397.58,2802.42 5396.61,2801.84 5395.25,2801.65"/>
    </edge>
    <edge id=":19_1" function="internal">
        <lane id=":19_1_0" index="0" speed="12.78" length="9.50" shape="5398.35,2804.75 5398.35,2795.25"/>
    </edge>
    <edge id=":19_2" function="internal">
        <lane id=":19_2_0" index="0" speed="13.33" length="4.82" shape="5398.35,2804.75 5399.17,2803.51 5400.00,2803.10 5400.82,2803.51 5401.65,2804.75"/>
    </edge>
    <edge id=":19_3" function="internal">
        <lane id=":19_3_0" index="0" speed="12.78" length="9.50" shape="5401.65,2795.25 5401.65,2804.75"/>
    </edge>
    <edge id=":19_4" function="internal">
        <lane id=":19_4_0" index="0" speed="14.26" length="10.32" shape="5401.65,2795.25 5401.25,2798.05 5400.05,2800.05 5398.05,2801.25 5395.25,2801.65"/>
    </edge>
    <edge id=":19_5" function="internal">
        <lane id=":19_5_0" index="0" speed="12.22" length="4.82" shape="5401.65,2795.25 5400.83,2796.49 5400.00,2796.90 5399.18,2796.49 5398.35,2795.25"/>
    </edge>
    <edge id=":19_6" function="internal">
        <lane id=":19_6_0" index="0" speed="14.26" length="5.00" shape="5395.25,2798.35 5396.61,2798.16 5397.58,2797.57 5398.16,2796.61 5398.35,2795.25"/>
    </edge>
    <edge id=":19_7" function="internal">