<?xml version="1.0" encoding="UTF-8"?>

<!-- generated on Fri Jul  8 14:40:14 2016 by SUMO netconvert Version 0.25.0
<?xml version="1.0" encoding="UTF-8"?>

<configuration xmlns:xsi="http://www.w3.org/2001/XMLSchema-instance" xsi:noNamespaceSchemaLocation="http://sumo.dlr.de/xsd/netconvertConfiguration.xsd">

    <input>
        <node-files value="simple.nod.xml"/>
        <edge-files value="simple.edg.xml"/>
    </input>

    <output>
        <output-file value="simple.net.xml"/>
    </output>

</configuration>
-->

<net version="0.25" xmlns:xsi="http://www.w3.org/2001/XMLSchema-instance" xsi:noNamespaceSchemaLocation="http://sumo.dlr.de/xsd/net_file.xsd">

    <location netOffset="0.00,500.00" convBoundary="0.00,0.00,1500.00,1000.00" origBoundary="0.00,-500.00,1500.00,500.00" projParameter="!"/>

    <edge id=":0_0" function="internal">
        <lane id=":0_0_0" index="0" speed="13.41" length="7.90" shape="1.13,503.46 -0.17,501.73 -0.60,500.00 -0.17,498.27 1.13,496.54"/>
    </edge>
    <edge id=":0_1" function="internal">
        <lane id=":0_1_0" index="0" speed="13.41" length="2.80" shape="1.13,503.46 0.84,502.01 1.13,501.13 1.50,501.01"/>
    </edge>
    <edge id=":0_4" function="internal">
        <lane id=":0_4_0" index="0" speed="13.41" length="2.02" shape="1.50,501.01 2.01,500.84 3.46,501.13"/>
    </edge>
    <edge id=":0_2" function="internal">
        <lane id=":0_2_0" index="0" speed="13.41" length="2.58" shape="3.46,498.87 3.04,499.43 2.90,500.00 3.04,500.57 3.46,501.13"/>
    </edge>
    <edge id=":0_3" function="internal">
        <lane id=":0_3_0" index="0" speed="13.41" length="2.20" shape="3.46,498.87 2.01,499.16 1.33,498.94"/>
    </edge>
    <edge id=":0_5" function="internal">
        <lane id=":0_5_0" index="0" speed="13.41" length="2.62" shape="1.33,498.94 1.13,498.87 0.84,497.99 1.13,496.54"/>
    </edge>
    <edge id=":1_0" function="internal">
        <lane id=":1_0_0" index="0" speed="13.41" length="6.64" shape="494.56,992.22 496.22,993.55 497.40,993.73 498.11,992.76 498.35,990.65"/>
    </edge>
    <edge id=":1_1" function="internal">
        <lane id=":1_1_0" index="0" speed="13.41" length="9.25" shape="494.56,992.22 497.29,994.90 499.34,996.82 500.73,997.97 501.45,998.35"/>
    </edge>
    <edge id=":1_2" function="internal">
        <lane id=":1_2_0" index="0" speed="13.41" length="4.82" shape="494.56,992.22 494.85,993.68 494.56,994.56 493.68,994.85 492.22,994.56"/>
    </edge>
    <edge id=":2_0" function="internal">
        <lane id=":2_0_0" index="0" speed="13.41" length="6.64" shape="498.35,9.35 498.11,7.24 497.40,6.27 496.22,6.45 494.56,7.78"/>
    </edge>
    <edge id=":2_1" function="internal">
        <lane id=":2_1_0" index="0" speed="13.41" length="12.10" shape="498.35,9.35 498.54,4.54 499.13,1.10 500.09,-0.96 501.45,-1.65"/>
    </edge>
    <edge id=":2_2" function="internal">
        <lane id=":2_2_0" index="0" speed="13.41" length="9.25" shape="501.45,1.65 500.73,2.03 499.34,3.18 497.29,5.10 494.56,7.78"/>
    </edge>
    <edge id=":2_3" function="internal">
        <lane id=":2_3_0" index="0" speed="13.41" length="1.66" shape="501.45,1.65 500.21,0.83 500.14,0.67"/>
    </edge>
    <edge id=":2_6" function="internal">
        <lane id=":2_6_0" index="0" speed="13.41" length="3.16" shape="500.14,0.67 499.80,0.00 500.21,-0.83 501.45,-1.65"/>
    </edge>
    <edge id=":2_4" function="internal">
        <lane id=":2_4_0" index="0" speed="13.41" length="11.76" shape="492.22,5.44 495.46,2.34 498.08,0.12 500.07,-1.21 501.45,-1.65"/>
    </edge>
    <edge id=":2_5" function="internal">
        <lane id=":2_5_0" index="0" speed="13.41" length="2.41" shape="492.22,5.44 493.68,5.15 494.56,5.44"/>
    </edge>
    <edge id=":2_7" function="internal">
        <lane id=":2_7_0" index="0" speed="13.41" length="2.41" shape="494.56,5.44 494.85,6.32 494.56,7.78"/>
    </edge>
    <edge id=":3_0" function="internal">
        <lane id=":3_0_0" index="0" speed="13.41" length="8.37" shape="1007.78,994.56 1003.65,997.85 1000.71,998.29 1000.64,998.21"/>
    </edge>
    <edge id=":3_1" function="internal">
        <lane id=":3_1_0" index="0" speed="13.41" length="2.54" shape="1007.78,994.56 1006.32,994.85 1005.44,994.56 1005.40,994.43"/>
    </edge>
    <edge id=":3_6" function="internal">
        <lane id=":3_6_0" index="0" speed="13.41" length="8.14" shape="1000.64,998.21 998.94,995.90 998.35,990.65"/>
    </edge>
    <edge id=":3_7" function="internal">
        <lane id=":3_7_0" index="0" speed="13.41" length="2.28" shape="1005.40,994.43 1005.15,993.68 1005.44,992.22"/>
    </edge>
    <edge id=":3_2" function="internal">
        <lane id=":3_2_0" index="0" speed="13.41" length="6.64" shape="1001.65,990.65 1001.89,992.76 1002.60,993.73 1003.78,993.55 1005.44,992.22"/>
    </edge>
    <edge id=":3_3" function="internal">
        <lane id=":3_3_0" index="0" speed="13.41" length="4.82" shape="1001.65,990.65 1000.83,991.89 1000.00,992.30 999.17,991.89 998.35,990.65"/>
    </edge>
    <edge id=":3_4" function="internal">
        <lane id=":3_4_0" index="0" speed="13.41" length="9.02" shape="995.25,998.35 996.61,997.87 997.57,996.43 998.16,994.02 998.35,990.65"/>
    </edge>
    <edge id=":3_5" function="internal">
        <lane id=":3_5_0" index="0" speed="13.41" length="12.14" shape="995.25,998.35 997.41,997.97 999.83,996.82 1002.51,994.90 1005.44,992.22"/>
    </edge>
    <edge id=":4_0" function="internal">
        <lane id=":4_0_0" index="0" speed="13.41" length="5.00" shape="998.35,4.75 998.16,3.39 997.58,2.43 996.61,1.84 995.25,1.65"/>
    </edge>
    <edge id=":4_1" function="internal">
        <lane id=":4_1_0" index="0" speed="13.41" length="3.62" shape="998.35,4.75 998.79,1.37 998.94,1.21"/>
    </edge>
    <edge id=":4_2" function="internal">
        <lane id=":4_2_0" index="0" speed="13.41" length="2.20" shape="998.35,4.75 999.17,3.51 999.81,3.19"/>
    </edge>
    <edge id=":4_6" function="internal">
        <lane id=":4_6_0" index="0" speed="13.41" length="8.02" shape="998.94,1.21 1000.12,-0.03 1002.34,0.55 1005.44,3.11"/>
    </edge>
    <edge id=":4_7" function="internal">
        <lane id=":4_7_0" index="0" speed="13.41" length="2.62" shape="999.81,3.19 1000.00,3.10 1000.83,3.51 1001.65,4.75"/>
    </edge>
    <edge id=":4_3" function="internal">
        <lane id=":4_3_0" index="0" speed="13.41" length="11.67" shape="995.25,-1.65 998.45,-1.40 1000.90,-0.60 1003.06,0.87 1005.44,3.11"/>
    </edge>
    <edge id=":4_4" function="internal">
        <lane id=":4_4_0" index="0" speed="13.41" length="10.32" shape="995.25,-1.65 998.05,-1.25 1000.05,-0.05 1001.25,1.95 1001.65,4.75"/>
    </edge>
    <edge id=":4_5" function="internal">
        <lane id=":4_5_0" index="0" speed="13.41" length="2.69" shape="995.25,-1.65 996.49,-0.83 996.90,0.00 996.77,0.25"/>
    </edge>
    <edge id=":4_8" function="internal">
        <lane id=":4_8_0" index="0" speed="13.41" length="2.13" shape="996.77,0.25 996.49,0.83 995.25,1.65"/>
    </edge>
    <edge id=":5_0" function="internal">
        <lane id=":5_0_0" index="0" speed="13.41" length="7.85" shape="1497.81,495.47 1499.65,497.59 1500.65,499.42 1500.82,500.95 1500.14,502.19"/>
    </edge>
    <edge id=":5_1" function="internal">
        <lane id=":5_1_0" index="0" speed="13.41" length="1.16" shape="1497.81,499.86 1498.95,499.63"/>
    </edge>
    <edge id=":5_2" function="internal">
        <lane id=":5_2_0" index="0" speed="13.41" length="3.66" shape="1498.95,499.63 1499.27,499.57 1500.14,499.86 1500.43,500.73 1500.14,502.19"/>
    </edge>

    <edge id="0to1" from="0" to="1" priority="2">
        <lane id="0to1_0" index="0" speed="13.41" length="694.51" shape="3.46,501.13 494.56,992.22"/>
    </edge>
    <edge id="0to2" from="0" to="2" priority="2">
        <lane id="0to2_0" index="0" speed="13.41" length="694.51" shape="1.13,496.54 492.22,5.44"/>
    </edge>
    <edge id="1to0" from="1" to="0" priority="2">
        <lane id="1to0_0" index="0" speed="13.41" length="694.51" shape="492.22,994.56 1.13,503.46"/>
    </edge>
    <edge id="1to2" from="1" to="2" priority="2">
        <lane id="1to2_0" index="0" speed="13.41" length="981.31" shape="498.35,990.65 498.35,9.35"/>
    </edge>
    <edge id="1to3" from="1" to="3" priority="2">
        <lane id="1to3_0" index="0" speed="13.41" length="493.80" shape="501.45,998.35 995.25,998.35"/>
    </edge>
    <edge id="2to0" from="2" to="0" priority="2">
        <lane id="2to0_0" index="0" speed="13.41" length="694.51" shape="494.56,7.78 3.46,498.87"/>
    </edge>
    <edge id="2to4" from="2" to="4" priority="2">
        <lane id="2to4_0" index="0" speed="13.41" length="493.80" shape="501.45,-1.65 995.25,-1.65"/>
    </edge>
    <edge id="3to4" from="3" to="4" priority="2">
        <lane id="3to4_0" index="0" speed="13.41" length="985.90" shape="998.35,990.65 998.35,4.75"/>
    </edge>
    <edge id="3to5" from="3" to="5" priority="2">
        <lane id="3to5_0" index="0" speed="13.41" length="696.31" shape="1005.44,992.22 1497.81,499.86"/>
    </edge>
    <edge id="4to2" from="4" to="2" priority="2">
        <lane id="4to2_0" index="0" speed="13.41" length="493.80" shape="995.25,1.65 501.45,1.65"/>
    </edge>
    <edge id="4to3" from="4" to="3" priority="2">
        <lane id="4to3_0" index="0" speed="13.41" length="985.90" shape="1001.65,4.75 1001.65,990.65"/>
    </edge>
    <edge id="4to5" from="4" to="5" priority="2">
        <lane id="4to5_0" index="0" speed="13.41" length="696.31" shape="1005.44,3.11 1497.81,495.47"/>
    </edge>
    <edge id="5to3" from="5" to="3" priority="2">
        <lane id="5to3_0" index="0" speed="13.41" length="696.31" shape="1500.14,502.19 1007.78,994.56"/>
    </edge>

    <junction id="0" type="priority" x="0.00" y="500.00" incLanes="1to0_0 2to0_0" intLanes=":0_0_0 :0_4_0 :0_2_0 :0_5_0" shape="0.00,504.60 4.60,500.00 -0.00,495.40">
        <request index="0" response="0000" foes="1000" cont="0"/>
        <request index="1" response="0100" foes="0100" cont="1"/>
        <request index="2" response="0000" foes="0010" cont="0"/>
        <request index="3" response="0001" foes="0001" cont="1"/>
    </junction>
    <junction id="1" type="priority" x="500.00" y="1000.00" incLanes="0to1_0" intLanes=":1_0_0 :1_1_0 :1_2_0" shape="501.45,999.95 501.45,996.75 499.95,990.65 496.75,990.65 495.69,991.09 491.09,995.69">
        <request index="0" response="000" foes="000" cont="0"/>
        <request index="1" response="000" foes="000" cont="0"/>
        <request index="2" response="000" foes="000" cont="0"/>
    </junction>
    <junction id="2" type="priority" x="500.00" y="0.00" incLanes="1to2_0 4to2_0 0to2_0" intLanes=":2_0_0 :2_1_0 :2_2_0 :2_6_0 :2_4_0 :2_7_0" shape="496.75,9.35 499.95,9.35 501.45,3.25 501.45,-3.25 491.09,4.31 495.69,8.91">
        <request index="0" response="000100" foes="100100" cont="0"/>
        <request index="1" response="010100" foes="011100" cont="0"/>
        <request index="2" response="000000" foes="100011" cont="0"/>
        <request index="3" response="010010" foes="010010" cont="1"/>
        <request index="4" response="000000" foes="001010" cont="0"/>
        <request index="5" response="000101" foes="000101" cont="1"/>
    </junction>
    <junction id="3" type="priority" x="1000.00" y="1000.00" incLanes="5to3_0 4to3_0 1to3_0" intLanes=":3_6_0 :3_7_0 :3_2_0 :3_3_0 :3_4_0 :3_5_0" shape="1008.91,995.69 1004.31,991.09 1003.25,990.65 996.75,990.65 995.25,996.75 995.25,999.95">
        <request index="0" response="110000" foes="111000" cont="1"/>
        <request index="1" response="100100" foes="100100" cont="1"/>
        <request index="2" response="100000" foes="100010" cont="0"/>
        <request index="3" response="010001" foes="010001" cont="0"/>
        <request index="4" response="000000" foes="001001" cont="0"/>
        <request index="5" response="000000" foes="000111" cont="0"/>
    </junction>
    <junction id="4" type="priority" x="1000.00" y="0.00" incLanes="3to4_0 2to4_0" intLanes=":4_0_0 :4_6_0 :4_7_0 :4_3_0 :4_4_0 :4_8_0" shape="996.75,4.75 1003.25,4.75 1004.31,4.24 1006.57,1.98 995.25,-3.25 995.25,3.25">
        <request index="0" response="000000" foes="100000" cont="0"/>
        <request index="1" response="011000" foes="011000" cont="1"/>
        <request index="2" response="010000" foes="010000" cont="1"/>
        <request index="3" response="000000" foes="000010" cont="0"/>
        <request index="4" response="000000" foes="000110" cont="0"/>
        <request index="5" response="000001" foes="000001" cont="1"/>
    </junction>
    <junction id="5" type="priority" x="1500.00" y="500.00" incLanes="4to5_0 3to5_0" intLanes=":5_0_0 :5_2_0" shape="1498.94,494.34 1496.68,496.61 1496.68,498.73 1501.27,503.32">
        <request index="0" response="00" foes="10" cont="0"/>
        <request index="1" response="01" foes="01" cont="1"/>
    </junction>

    <junction id=":0_4_0" type="internal" x="1.50" y="501.01" incLanes=":0_1_0 2to0_0" intLanes=":0_2_0"/>
    <junction id=":0_5_0" type="internal" x="1.33" y="498.94" incLanes=":0_3_0 1to0_0" intLanes=":0_0_0"/>
    <junction id=":2_6_0" type="internal" x="500.14" y="0.67" incLanes=":2_3_0 0to2_0 1to2_0" intLanes=":2_1_0 :2_4_0"/>
    <junction id=":2_7_0" type="internal" x="494.56" y="5.44" incLanes=":2_5_0 1to2_0 4to2_0" intLanes=":2_0_0 :2_2_0"/>
    <junction id=":3_6_0" type="internal" x="1000.64" y="998.21" incLanes=":3_0_0 1to3_0" intLanes=":3_3_0 :3_4_0 :3_5_0"/>
    <junction id=":3_7_0" type="internal" x="1005.40" y="994.43" incLanes=":3_1_0 1to3_0 4to3_0" intLanes=":3_2_0 :3_5_0"/>
    <junction id=":4_6_0" type="internal" x="998.94" y="1.21" incLanes=":4_1_0 2to4_0" intLanes=":4_3_0 :4_4_0"/>
    <junction id=":4_7_0" type="internal" x="999.81" y="3.19" incLanes=":4_2_0 2to4_0" intLanes=":4_4_0"/>
    <junction id=":4_8_0" type="internal" x="996.77" y="0.25" incLanes=":4_5_0 3to4_0" intLanes=":4_0_0"/>
    <junction id=":5_2_0" type="internal" x="1498.95" y="499.63" incLanes=":5_1_0 4to5_0" intLanes=":5_0_0"/>

    <connection from="0to1" to="1to2" fromLane="0" toLane="0" via=":1_0_0" dir="r" state="M"/>
    <connection from="0to1" to="1to3" fromLane="0" toLane="0" via=":1_1_0" dir="R" state="M"/>
    <connection from="0to1" to="1to0" fromLane="0" toLane="0" via=":1_2_0" dir="t" state="M"/>
    <connection from="0to2" to="2to4" fromLane="0" toLane="0" via=":2_4_0" dir="l" state="M"/>
    <connection from="0to2" to="2to0" fromLane="0" toLane="0" via=":2_5_0" dir="t" state="m"/>
    <connection from="1to0" to="0to2" fromLane="0" toLane="0" via=":0_0_0" dir="l" state="M"/>
    <connection from="1to0" to="0to1" fromLane="0" toLane="0" via=":0_1_0" dir="t" state="m"/>
    <connection from="1to2" to="2to0" fromLane="0" toLane="0" via=":2_0_0" dir="r" state="m"/>
    <connection from="1to2" to="2to4" fromLane="0" toLane="0" via=":2_1_0" dir="l" state="m"/>
    <connection from="1to3" to="3to4" fromLane="0" toLane="0" via=":3_4_0" dir="r" state="M"/>
    <connection from="1to3" to="3to5" fromLane="0" toLane="0" via=":3_5_0" dir="R" state="M"/>
    <connection from="2to0" to="0to1" fromLane="0" toLane="0" via=":0_2_0" dir="r" state="M"/>
    <connection from="2to0" to="0to2" fromLane="0" toLane="0" via=":0_3_0" dir="t" state="m"/>
    <connection from="2to4" to="4to5" fromLane="0" toLane="0" via=":4_3_0" dir="L" state="M"/>
    <connection from="2to4" to="4to3" fromLane="0" toLane="0" via=":4_4_0" dir="l" state="M"/>
    <connection from="2to4" to="4to2" fromLane="0" toLane="0" via=":4_5_0" dir="t" state="m"/>
    <connection from="3to4" to="4to2" fromLane="0" toLane="0" via=":4_0_0" dir="r" state="M"/>
    <connection from="3to4" to="4to5" fromLane="0" toLane="0" via=":4_1_0" dir="l" state="m"/>
    <connection from="3to4" to="4to3" fromLane="0" toLane="0" via=":4_2_0" dir="t" state="m"/>
    <connection from="3to5" to="5to3" fromLane="0" toLane="0" via=":5_1_0" dir="t" state="m"/>
    <connection from="4to2" to="2to0" fromLane="0" toLane="0" via=":2_2_0" dir="r" state="M"/>
    <connection from="4to2" to="2to4" fromLane="0" toLane="0" via=":2_3_0" dir="t" state="m"/>
    <connection from="4to3" to="3to5" fromLane="0" toLane="0" via=":3_2_0" dir="r" state="m"/>
    <connection from="4to3" to="3to4" fromLane="0" toLane="0" via=":3_3_0" dir="t" state="m"/>
    <connection from="4to5" to="5to3" fromLane="0" toLane="0" via=":5_0_0" dir="l" state="M"/>
    <connection from="5to3" to="3to4" fromLane="0" toLane="0" via=":3_0_0" dir="l" state="m"/>
    <connection from="5to3" to="3to5" fromLane="0" toLane="0" via=":3_1_0" dir="t" state="m"/>

    <connection from=":0_0" to="0to2" fromLane="0" toLane="0" dir="s" state="M"/>
    <connection from=":0_1" to="0to1" fromLane="0" toLane="0" via=":0_4_0" dir="s" state="m"/>
    <connection from=":0_4" to="0to1" fromLane="0" toLane="0" dir="s" state="M"/>
    <connection from=":0_2" to="0to1" fromLane="0" toLane="0" dir="s" state="M"/>
    <connection from=":0_3" to="0to2" fromLane="0" toLane="0" via=":0_5_0" dir="s" state="m"/>
    <connection from=":0_5" to="0to2" fromLane="0" toLane="0" dir="s" state="M"/>
    <connection from=":1_0" to="1to2" fromLane="0" toLane="0" dir="s" state="M"/>
    <connection from=":1_1" to="1to3" fromLane="0" toLane="0" dir="s" state="M"/>
    <connection from=":1_2" to="1to0" fromLane="0" toLane="0" dir="s" state="M"/>
    <connection from=":2_0" to="2to0" fromLane="0" toLane="0" dir="s" state="M"/>
    <connection from=":2_1" to="2to4" fromLane="0" toLane="0" dir="s" state="M"/>
    <connection from=":2_2" to="2to0" fromLane="0" toLane="0" dir="s" state="M"/>
    <connection from=":2_3" to="2to4" fromLane="0" toLane="0" via=":2_6_0" dir="s" state="m"/>
    <connection from=":2_6" to="2to4" fromLane="0" toLane="0" dir="s" state="M"/>
    <connection from=":2_4" to="2to4" fromLane="0" toLane="0" dir="s" state="M"/>
    <connection from=":2_5" to="2to0" fromLane="0" toLane="0" via=":2_7_0" dir="s" state="m"/>
    <connection from=":2_7" to="2to0" fromLane="0" toLane="0" dir="s" state="M"/>
    <connection from=":3_0" to="3to4" fromLane="0" toLane="0" via=":3_6_0" dir="s" state="m"/>
    <connection from=":3_6" to="3to4" fromLane="0" toLane="0" dir="s" state="M"/>
    <connection from=":3_1" to="3to5" fromLane="0" toLane="0" via=":3_7_0" dir="s" state="m"/>
    <connection from=":3_7" to="3to5" fromLane="0" toLane="0" dir="s" state="M"/>
    <connection from=":3_2" to="3to5" fromLane="0" toLane="0" dir="s" state="M"/>
    <connection from=":3_3" to="3to4" fromLane="0" toLane="0" dir="s" state="M"/>
    <connection from=":3_4" to="3to4" fromLane="0" toLane="0" dir="s" state="M"/>
    <connection from=":3_5" to="3to5" fromLane="0" toLane="0" dir="s" state="M"/>
    <connection from=":4_0" to="4to2" fromLane="0" toLane="0" dir="s" state="M"/>
    <connection from=":4_1" to="4to5" fromLane="0" toLane="0" via=":4_6_0" dir="s" state="m"/>
    <connection from=":4_6" to="4to5" fromLane="0" toLane="0" dir="s" state="M"/>
    <connection from=":4_2" to="4to3" fromLane="0" toLane="0" via=":4_7_0" dir="s" state="m"/>
    <connection from=":4_7" to="4to3" fromLane="0" toLane="0" dir="s" state="M"/>
    <connection from=":4_3" to="4to5" fromLane="0" toLane="0" dir="s" state="M"/>
    <connection from=":4_4" to="4to3" fromLane="0" toLane="0" dir="s" state="M"/>
    <connection from=":4_5" to="4to2" fromLane="0" toLane="0" via=":4_8_0" dir="s" state="m"/>
    <connection from=":4_8" to="4to2" fromLane="0" toLane="0" dir="s" state="M"/>
    <connection from=":5_0" to="5to3" fromLane="0" toLane="0" dir="s" state="M"/>
    <connection from=":5_1" to="5to3" fromLane="0" toLane="0" via=":5_2_0" dir="s" state="m"/>
    <connection from=":5_2" to="5to3" fromLane="0" toLane="0" dir="s" state="M"/>

</net>
