<nodes> <!-- The opening tag -->
<node id="-1" x="-1.0" y="0.0" type="priority"/>
<node id="0" x="0.0" y="0.0" type="priority"/> <!-- def. of node "0" -->
<node id="1" x="+800.0" y="+600.0" type="priority"/> <!-- def. of node "1" -->
<node id="2" x="+800.0" y="-600.0" type="priority"/> <!-- def. of node "2" -->
<node id="3" x="+1600.0" y="+600.0" type="priority"/> <!-- def. of node "3" -->
<node id="4" x="+1600.0" y="-600.0" type="priority"/> <!-- def. of node "4" -->
<node id="5" x="+2400.0" y="0.0" type="priority"/> <!-- def. of node "5" -->
<node id="-5" x="+2401.0" y="0.0" type="priority"/> <!-- def. of node "5" -->
</nodes> <!-- The closing tag -->
