<edges>

       <edge id="0to1" from="0" to="1" priority="2" numLanes="1" speed="13.41"/>
       <edge id="1to0" from="1" to="0" priority="2" numLanes="1" speed="13.41"/>
       <edge id="0to2" from="0" to="2" priority="2" numLanes="1" speed="13.41"/>
       <edge id="2to0" from="2" to="0" priority="2" numLanes="1" speed="13.41"/>
       <edge id="1to2" from="1" to="2" priority="2" numLanes="1" speed="13.41"/>
       <edge id="1to3" from="1" to="3" priority="2" numLanes="1" speed="13.41"/>
       <edge id="2to4" from="2" to="4" priority="2" numLanes="1" speed="13.41"/>
       <edge id="4to2" from="4" to="2" priority="2" numLanes="1" speed="13.41"/>
       <edge id="4to3" from="4" to="3" priority="2" numLanes="1" speed="13.41"/>
       <edge id="3to4" from="3" to="4" priority="2" numLanes="1" speed="13.41"/>
       <edge id="3to5" from="3" to="5" priority="2" numLanes="1" speed="13.41"/>
       <edge id="5to3" from="5" to="3" priority="2" numLanes="1" speed="13.41"/>
       <edge id="4to5" from="4" to="5" priority="2" numLanes="1" speed="13.41"/>
       
</edges>
