<?xml version="1.0" encoding="UTF-8"?>

<!-- generated on 4/2/2018 3:22:45 PM by Netedit Version 0.30.0
<?xml version="1.0" encoding="UTF-8"?>

<configuration xmlns:xsi="http://www.w3.org/2001/XMLSchema-instance" xsi:noNamespaceSchemaLocation="http://sumo.dlr.de/xsd/netconvertConfiguration.xsd">

    <input>
        <sumo-net-file value="C:\Users\Shekar\Desktop\laptop\sumo_sim\grid\network\grid.net.xml"/>
    </input>

    <output>
        <output-file value="C:\Users\Shekar\Desktop\laptop\sumo_sim\grid\network\grid.net.xml"/>
    </output>

    <processing>
        <no-turnarounds value="true"/>
        <offset.disable-normalization value="true"/>
        <lefthand value="false"/>
        <junctions.corner-detail value="0"/>
        <rectangular-lane-cut value="false"/>
    </processing>

</configuration>
-->

<net version="0.27" xmlns:xsi="http://www.w3.org/2001/XMLSchema-instance" xsi:noNamespaceSchemaLocation="http://sumo.dlr.de/xsd/net_file.xsd">

    <location netOffset="0.00,0.00" convBoundary="0.00,0.00,1000.00,1000.00" origBoundary="0.00,0.00,1000.00,1000.00" projParameter="!"/>

    <edge id=":0_0" function="internal">
        <lane id=":0_0_0" index="0" speed="13.41" length="7.90" shape="-1.65,3.25 -1.34,1.11 -0.42,-0.43 1.11,-1.34 3.25,-1.65"/>
    </edge>
    <edge id=":0_1" function="internal">
        <lane id=":0_1_0" index="0" speed="13.41" length="2.80" shape="-1.65,3.25 -0.82,2.01 0.00,1.60 0.35,1.77"/>
    </edge>
    <edge id=":0_4" function="internal">
        <lane id=":0_4_0" index="0" speed="13.41" length="2.02" shape="0.35,1.77 0.83,2.01 1.65,3.25"/>
    </edge>
    <edge id=":0_2" function="internal">
        <lane id=":0_2_0" index="0" speed="13.41" length="2.58" shape="3.25,1.65 2.55,1.75 2.05,2.05 1.75,2.55 1.65,3.25"/>
    </edge>
    <edge id=":0_3" function="internal">
        <lane id=":0_3_0" index="0" speed="13.41" length="2.20" shape="3.25,1.65 2.01,0.82 1.69,0.19"/>
    </edge>
    <edge id=":0_5" function="internal">
        <lane id=":0_5_0" index="0" speed="13.41" length="2.62" shape="1.69,0.19 1.60,-0.00 2.01,-0.83 3.25,-1.65"/>
    </edge>
    <edge id=":1_0" function="internal">
        <lane id=":1_0_0" index="0" speed="13.41" length="5.00" shape="498.35,4.75 498.16,3.39 497.58,2.43 496.61,1.84 495.25,1.65"/>
    </edge>
    <edge id=":1_1" function="internal">
        <lane id=":1_1_0" index="0" speed="13.41" length="10.32" shape="498.35,4.75 498.75,1.95 499.95,-0.05 501.95,-1.25 504.75,-1.65"/>
    </edge>
    <edge id=":1_2" function="internal">
        <lane id=":1_2_0" index="0" speed="13.41" length="2.69" shape="498.35,4.75 499.18,3.51 500.00,3.10 500.25,3.23"/>
    </edge>
    <edge id=":1_9" function="internal">
        <lane id=":1_9_0" index="0" speed="13.41" length="2.13" shape="500.25,3.23 500.82,3.51 501.65,4.75"/>
    </edge>
    <edge id=":1_3" function="internal">
        <lane id=":1_3_0" index="0" speed="13.41" length="5.00" shape="504.75,1.65 503.39,1.84 502.42,2.42 501.84,3.39 501.65,4.75"/>
    </edge>
    <edge id=":1_4" function="internal">
        <lane id=":1_4_0" index="0" speed="13.41" length="9.50" shape="504.75,1.65 495.25,1.65"/>
    </edge>
    <edge id=":1_5" function="internal">
        <lane id=":1_5_0" index="0" speed="13.41" length="2.41" shape="504.75,1.65 503.51,0.83 503.10,0.00"/>
    </edge>
    <edge id=":1_10" function="internal">
        <lane id=":1_10_0" index="0" speed="13.41" length="2.41" shape="503.10,0.00 503.51,-0.83 504.75,-1.65"/>
    </edge>
    <edge id=":1_6" function="internal">
        <lane id=":1_6_0" index="0" speed="13.41" length="9.50" shape="495.25,-1.65 504.75,-1.65"/>
    </edge>
    <edge id=":1_7" function="internal">
        <lane id=":1_7_0" index="0" speed="13.41" length="5.28" shape="495.25,-1.65 498.05,-1.25 500.05,-0.05 500.11,0.05"/>
    </edge>
    <edge id=":1_8" function="internal">
        <lane id=":1_8_0" index="0" speed="13.41" length="2.41" shape="495.25,-1.65 496.49,-0.83 496.90,0.00"/>
    </edge>
    <edge id=":1_11" function="internal">
        <lane id=":1_11_0" index="0" speed="13.41" length="5.04" shape="500.11,0.05 501.25,1.95 501.65,4.75"/>
    </edge>
    <edge id=":1_12" function="internal">
        <lane id=":1_12_0" index="0" speed="13.41" length="2.41" shape="496.90,0.00 496.49,0.83 495.25,1.65"/>
    </edge>
    <edge id=":2_0" function="internal">
        <lane id=":2_0_0" index="0" speed="13.41" length="2.58" shape="998.35,3.25 998.25,2.55 997.95,2.05 997.45,1.75 996.75,1.65"/>
    </edge>
    <edge id=":2_1" function="internal">
        <lane id=":2_1_0" index="0" speed="13.41" length="2.20" shape="998.35,3.25 999.17,2.01 999.81,1.69"/>
    </edge>
    <edge id=":2_4" function="internal">
        <lane id=":2_4_0" index="0" speed="13.41" length="2.62" shape="999.81,1.69 1000.00,1.60 1000.83,2.01 1001.65,3.25"/>
    </edge>
    <edge id=":2_2" function="internal">
        <lane id=":2_2_0" index="0" speed="13.41" length="7.90" shape="996.75,-1.65 998.89,-1.34 1000.43,-0.43 1001.34,1.11 1001.65,3.25"/>
    </edge>
    <edge id=":2_3" function="internal">
        <lane id=":2_3_0" index="0" speed="13.41" length="2.80" shape="996.75,-1.65 997.99,-0.83 998.40,0.00 998.23,0.35"/>
    </edge>
    <edge id=":2_5" function="internal">
        <lane id=":2_5_0" index="0" speed="13.41" length="2.02" shape="998.23,0.35 997.99,0.83 996.75,1.65"/>
    </edge>
    <edge id=":3_0" function="internal">
        <lane id=":3_0_0" index="0" speed="13.41" length="9.50" shape="-1.65,504.75 -1.65,495.25"/>
    </edge>
    <edge id=":3_1" function="internal">
        <lane id=":3_1_0" index="0" speed="13.41" length="5.28" shape="-1.65,504.75 -1.25,501.95 -0.05,499.95 0.05,499.89"/>
    </edge>
    <edge id=":3_2" function="internal">
        <lane id=":3_2_0" index="0" speed="13.41" length="2.41" shape="-1.65,504.75 -0.83,503.51 0.00,503.10"/>
    </edge>
    <edge id=":3_9" function="internal">
        <lane id=":3_9_0" index="0" speed="13.41" length="5.04" shape="0.05,499.89 1.95,498.75 4.75,498.35"/>
    </edge>
    <edge id=":3_10" function="internal">
        <lane id=":3_10_0" index="0" speed="13.41" length="2.41" shape="0.00,503.10 0.83,503.51 1.65,504.75"/>
    </edge>
    <edge id=":3_3" function="internal">
        <lane id=":3_3_0" index="0" speed="13.41" length="5.00" shape="4.75,501.65 3.39,501.84 2.43,502.42 1.84,503.39 1.65,504.75"/>
    </edge>
    <edge id=":3_4" function="internal">
        <lane id=":3_4_0" index="0" speed="13.41" length="10.32" shape="4.75,501.65 1.95,501.25 -0.05,500.05 -1.25,498.05 -1.65,495.25"/>
    </edge>
    <edge id=":3_5" function="internal">
        <lane id=":3_5_0" index="0" speed="13.41" length="2.69" shape="4.75,501.65 3.51,500.82 3.10,500.00 3.23,499.75"/>
    </edge>
    <edge id=":3_11" function="internal">
        <lane id=":3_11_0" index="0" speed="13.41" length="2.13" shape="3.23,499.75 3.51,499.18 4.75,498.35"/>
    </edge>
    <edge id=":3_6" function="internal">
        <lane id=":3_6_0" index="0" speed="13.41" length="5.00" shape="1.65,495.25 1.84,496.61 2.42,497.58 3.39,498.16 4.75,498.35"/>
    </edge>
    <edge id=":3_7" function="internal">
        <lane id=":3_7_0" index="0" speed="13.41" length="9.50" shape="1.65,495.25 1.65,504.75"/>
    </edge>
    <edge id=":3_8" function="internal">
        <lane id=":3_8_0" index="0" speed="13.41" length="2.41" shape="1.65,495.25 0.83,496.49 0.00,496.90"/>
    </edge>
    <edge id=":3_12" function="internal">
        <lane id=":3_12_0" index="0" speed="13.41" length="2.41" shape="0.00,496.90 -0.83,496.49 -1.65,495.25"/>
    </edge>
    <edge id=":4_0" function="internal">
        <lane id=":4_0_0" index="0" speed="13.41" length="5.00" shape="498.35,504.75 498.16,503.39 497.58,502.42 496.61,501.84 495.25,501.65"/>
    </edge>
    <edge id=":4_1" function="internal">
        <lane id=":4_1_0" index="0" speed="13.41" length="9.50" shape="498.35,504.75 498.35,495.25"/>
    </edge>
    <edge id=":4_2" function="internal">
        <lane id=":4_2_0" index="0" speed="13.41" length="5.28" shape="498.35,504.75 498.75,501.95 499.95,499.95 500.05,499.89"/>
    </edge>
    <edge id=":4_3" function="internal">
        <lane id=":4_3_0" index="0" speed="13.41" length="2.41" shape="498.35,504.75 499.18,503.51 500.00,503.10"/>
    </edge>
    <edge id=":4_16" function="internal">
        <lane id=":4_16_0" index="0" speed="13.41" length="5.04" shape="500.05,499.89 501.95,498.75 504.75,498.35"/>
    </edge>
    <edge id=":4_17" function="internal">
        <lane id=":4_17_0" index="0" speed="13.41" length="2.41" shape="500.00,503.10 500.82,503.51 501.65,504.75"/>
    </edge>
    <edge id=":4_4" function="internal">
        <lane id=":4_4_0" index="0" speed="13.41" length="5.00" shape="504.75,501.65 503.39,501.84 502.42,502.42 501.84,503.39 501.65,504.75"/>
    </edge>
    <edge id=":4_5" function="internal">
        <lane id=":4_5_0" index="0" speed="13.41" length="9.50" shape="504.75,501.65 495.25,501.65"/>
    </edge>
    <edge id=":4_6" function="internal">
        <lane id=":4_6_0" index="0" speed="13.41" length="5.28" shape="504.75,501.65 501.95,501.25 499.95,500.05 499.89,499.95"/>
    </edge>
    <edge id=":4_7" function="internal">
        <lane id=":4_7_0" index="0" speed="13.41" length="2.41" shape="504.75,501.65 503.51,500.82 503.10,500.00"/>
    </edge>
    <edge id=":4_18" function="internal">
        <lane id=":4_18_0" index="0" speed="13.41" length="5.04" shape="499.89,499.95 498.75,498.05 498.35,495.25"/>
    </edge>
    <edge id=":4_19" function="internal">
        <lane id=":4_19_0" index="0" speed="13.41" length="2.41" shape="503.10,500.00 503.51,499.18 504.75,498.35"/>
    </edge>
    <edge id=":4_8" function="internal">
        <lane id=":4_8_0" index="0" speed="13.41" length="5.00" shape="501.65,495.25 501.84,496.61 502.42,497.58 503.39,498.16 504.75,498.35"/>
    </edge>
    <edge id=":4_9" function="internal">
        <lane id=":4_9_0" index="0" speed="13.41" length="9.50" shape="501.65,495.25 501.65,504.75"/>
    </edge>
    <edge id=":4_10" function="internal">
        <lane id=":4_10_0" index="0" speed="13.41" length="5.28" shape="501.65,495.25 501.25,498.05 500.05,500.05 499.95,500.11"/>
    </edge>
    <edge id=":4_11" function="internal">
        <lane id=":4_11_0" index="0" speed="13.41" length="2.41" shape="501.65,495.25 500.82,496.49 500.00,496.90"/>
    </edge>
    <edge id=":4_20" function="internal">
        <lane id=":4_20_0" index="0" speed="13.41" length="5.04" shape="499.95,500.11 498.05,501.25 495.25,501.65"/>
    </edge>
    <edge id=":4_21" function="internal">
        <lane id=":4_21_0" index="0" speed="13.41" length="2.41" shape="500.00,496.90 499.18,496.49 498.35,495.25"/>
    </edge>
    <edge id=":4_12" function="internal">
        <lane id=":4_12_0" index="0" speed="13.41" length="5.00" shape="495.25,498.35 496.61,498.16 497.58,497.58 498.16,496.61 498.35,495.25"/>
    </edge>
    <edge id=":4_13" function="internal">
        <lane id=":4_13_0" index="0" speed="13.41" length="9.50" shape="495.25,498.35 504.75,498.35"/>
    </edge>
    <edge id=":4_14" function="internal">
        <lane id=":4_14_0" index="0" speed="13.41" length="5.28" shape="495.25,498.35 498.05,498.75 500.05,499.95 500.11,500.05"/>
    </edge>
    <edge id=":4_15" function="internal">
        <lane id=":4_15_0" index="0" speed="13.41" length="2.41" shape="495.25,498.35 496.49,499.18 496.90,500.00"/>
    </edge>
    <edge id=":4_22" function="internal">
        <lane id=":4_22_0" index="0" speed="13.41" length="5.04" shape="500.11,500.05 501.25,501.95 501.65,504.75"/>
    </edge>
    <edge id=":4_23" function="internal">
        <lane id=":4_23_0" index="0" speed="13.41" length="2.41" shape="496.90,500.00 496.49,500.82 495.25,501.65"/>
    </edge>
    <edge id=":5_0" function="internal">
        <lane id=":5_0_0" index="0" speed="13.41" length="5.00" shape="998.35,504.75 998.16,503.39 997.58,502.42 996.61,501.84 995.25,501.65"/>
    </edge>
    <edge id=":5_1" function="internal">
        <lane id=":5_1_0" index="0" speed="13.41" length="9.50" shape="998.35,504.75 998.35,495.25"/>
    </edge>
    <edge id=":5_2" function="internal">
        <lane id=":5_2_0" index="0" speed="13.41" length="2.41" shape="998.35,504.75 999.17,503.51 1000.00,503.10"/>
    </edge>
    <edge id=":5_9" function="internal">
        <lane id=":5_9_0" index="0" speed="13.41" length="2.41" shape="1000.00,503.10 1000.83,503.51 1001.65,504.75"/>
    </edge>
    <edge id=":5_3" function="internal">
        <lane id=":5_3_0" index="0" speed="13.41" length="9.50" shape="1001.65,495.25 1001.65,504.75"/>
    </edge>
    <edge id=":5_4" function="internal">
        <lane id=":5_4_0" index="0" speed="13.41" length="5.28" shape="1001.65,495.25 1001.25,498.05 1000.05,500.05 999.95,500.11"/>
    </edge>
    <edge id=":5_5" function="internal">
        <lane id=":5_5_0" index="0" speed="13.41" length="2.41" shape="1001.65,495.25 1000.83,496.49 1000.00,496.90"/>
    </edge>
    <edge id=":5_10" function="internal">
        <lane id=":5_10_0" index="0" speed="13.41" length="5.04" shape="999.95,500.11 998.05,501.25 995.25,501.65"/>
    </edge>
    <edge id=":5_11" function="internal">
        <lane id=":5_11_0" index="0" speed="13.41" length="2.41" shape="1000.00,496.90 999.17,496.49 998.35,495.25"/>
    </edge>
    <edge id=":5_6" function="internal">
        <lane id=":5_6_0" index="0" speed="13.41" length="5.00" shape="995.25,498.35 996.61,498.16 997.57,497.58 998.16,496.61 998.35,495.25"/>
    </edge>
    <edge id=":5_7" function="internal">
        <lane id=":5_7_0" index="0" speed="13.41" length="10.32" shape="995.25,498.35 998.05,498.75 1000.05,499.95 1001.25,501.95 1001.65,504.75"/>
    </edge>
    <edge id=":5_8" function="internal">
        <lane id=":5_8_0" index="0" speed="13.41" length="2.69" shape="995.25,498.35 996.49,499.18 996.90,500.00 996.77,500.25"/>
    </edge>
    <edge id=":5_12" function="internal">
        <lane id=":5_12_0" index="0" speed="13.41" length="2.13" shape="996.77,500.25 996.49,500.82 995.25,501.65"/>
    </edge>
    <edge id=":6_0" function="internal">
        <lane id=":6_0_0" index="0" speed="13.41" length="7.90" shape="3.25,1001.65 1.11,1001.34 -0.43,1000.43 -1.34,998.89 -1.65,996.75"/>
    </edge>
    <edge id=":6_1" function="internal">
        <lane id=":6_1_0" index="0" speed="13.41" length="2.80" shape="3.25,1001.65 2.01,1000.83 1.60,1000.00 1.77,999.65"/>
    </edge>
    <edge id=":6_4" function="internal">
        <lane id=":6_4_0" index="0" speed="13.41" length="2.02" shape="1.77,999.65 2.01,999.17 3.25,998.35"/>
    </edge>
    <edge id=":6_2" function="internal">
        <lane id=":6_2_0" index="0" speed="13.41" length="2.58" shape="1.65,996.75 1.75,997.45 2.05,997.95 2.55,998.25 3.25,998.35"/>
    </edge>
    <edge id=":6_3" function="internal">
        <lane id=":6_3_0" index="0" speed="13.41" length="2.20" shape="1.65,996.75 0.83,997.99 0.19,998.31"/>
    </edge>
    <edge id=":6_5" function="internal">
        <lane id=":6_5_0" index="0" speed="13.41" length="2.62" shape="0.19,998.31 0.00,998.40 -0.83,997.99 -1.65,996.75"/>
    </edge>
    <edge id=":7_0" function="internal">
        <lane id=":7_0_0" index="0" speed="13.41" length="9.50" shape="504.75,1001.65 495.25,1001.65"/>
    </edge>
    <edge id=":7_1" function="internal">
        <lane id=":7_1_0" index="0" speed="13.41" length="5.28" shape="504.75,1001.65 501.95,1001.25 499.95,1000.05 499.89,999.95"/>
    </edge>
    <edge id=":7_2" function="internal">
        <lane id=":7_2_0" index="0" speed="13.41" length="2.41" shape="504.75,1001.65 503.51,1000.83 503.10,1000.00"/>
    </edge>
    <edge id=":7_9" function="internal">
        <lane id=":7_9_0" index="0" speed="13.41" length="5.04" shape="499.89,999.95 498.75,998.05 498.35,995.25"/>
    </edge>
    <edge id=":7_10" function="internal">
        <lane id=":7_10_0" index="0" speed="13.41" length="2.41" shape="503.10,1000.00 503.51,999.17 504.75,998.35"/>
    </edge>
    <edge id=":7_3" function="internal">
        <lane id=":7_3_0" index="0" speed="13.41" length="5.00" shape="501.65,995.25 501.84,996.61 502.42,997.57 503.39,998.16 504.75,998.35"/>
    </edge>
    <edge id=":7_4" function="internal">
        <lane id=":7_4_0" index="0" speed="13.41" length="10.32" shape="501.65,995.25 501.25,998.05 500.05,1000.05 498.05,1001.25 495.25,1001.65"/>
    </edge>
    <edge id=":7_5" function="internal">
        <lane id=":7_5_0" index="0" speed="13.41" length="2.69" shape="501.65,995.25 500.82,996.49 500.00,996.90 499.75,996.77"/>
    </edge>
    <edge id=":7_11" function="internal">
        <lane id=":7_11_0" index="0" speed="13.41" length="2.13" shape="499.75,996.77 499.18,996.49 498.35,995.25"/>
    </edge>
    <edge id=":7_6" function="internal">
        <lane id=":7_6_0" index="0" speed="13.41" length="5.00" shape="495.25,998.35 496.61,998.16 497.58,997.58 498.16,996.61 498.35,995.25"/>
    </edge>
    <edge id=":7_7" function="internal">
        <lane id=":7_7_0" index="0" speed="13.41" length="9.50" shape="495.25,998.35 504.75,998.35"/>
    </edge>
    <edge id=":7_8" function="internal">
        <lane id=":7_8_0" index="0" speed="13.41" length="2.41" shape="495.25,998.35 496.49,999.17 496.90,1000.00"/>
    </edge>
    <edge id=":7_12" function="internal">
        <lane id=":7_12_0" index="0" speed="13.41" length="2.41" shape="496.90,1000.00 496.49,1000.83 495.25,1001.65"/>
    </edge>
    <edge id=":8_0" function="internal">
        <lane id=":8_0_0" index="0" speed="13.41" length="7.90" shape="1001.65,996.75 1001.34,998.89 1000.43,1000.43 998.89,1001.34 996.75,1001.65"/>
    </edge>
    <edge id=":8_1" function="internal">
        <lane id=":8_1_0" index="0" speed="13.41" length="2.80" shape="1001.65,996.75 1000.83,997.99 1000.00,998.40 999.65,998.23"/>
    </edge>
    <edge id=":8_4" function="internal">
        <lane id=":8_4_0" index="0" speed="13.41" length="2.02" shape="999.65,998.23 999.17,997.99 998.35,996.75"/>
    </edge>
    <edge id=":8_2" function="internal">
        <lane id=":8_2_0" index="0" speed="13.41" length="2.58" shape="996.75,998.35 997.45,998.25 997.95,997.95 998.25,997.45 998.35,996.75"/>
    </edge>
    <edge id=":8_3" function="internal">
        <lane id=":8_3_0" index="0" speed="13.41" length="2.20" shape="996.75,998.35 997.99,999.17 998.31,999.81"/>
    </edge>
    <edge id=":8_5" function="internal">
        <lane id=":8_5_0" index="0" speed="13.41" length="2.62" shape="998.31,999.81 998.40,1000.00 997.99,1000.83 996.75,1001.65"/>
    </edge>

    <edge id="0_1" from="0" to="1" priority="2">
        <lane id="0_1_0" index="0" speed="13.41" length="492.00" shape="3.25,-1.65 495.25,-1.65"/>
    </edge>
    <edge id="0_3" from="0" to="3" priority="2">
        <lane id="0_3_0" index="0" speed="13.41" length="492.00" shape="1.65,3.25 1.65,495.25"/>
    </edge>
    <edge id="1_0" from="1" to="0" priority="2">
        <lane id="1_0_0" index="0" speed="13.41" length="492.00" shape="495.25,1.65 3.25,1.65"/>
    </edge>
    <edge id="1_2" from="1" to="2" priority="2">
        <lane id="1_2_0" index="0" speed="13.41" length="492.00" shape="504.75,-1.65 996.75,-1.65"/>
    </edge>
    <edge id="1_4" from="1" to="4" priority="2">
        <lane id="1_4_0" index="0" speed="13.41" length="490.50" shape="501.65,4.75 501.65,495.25"/>
    </edge>
    <edge id="2_1" from="2" to="1" priority="2">
        <lane id="2_1_0" index="0" speed="13.41" length="492.00" shape="996.75,1.65 504.75,1.65"/>
    </edge>
    <edge id="2_5" from="2" to="5" priority="2">
        <lane id="2_5_0" index="0" speed="13.41" length="492.00" shape="1001.65,3.25 1001.65,495.25"/>
    </edge>
    <edge id="3_0" from="3" to="0" priority="2">
        <lane id="3_0_0" index="0" speed="13.41" length="492.00" shape="-1.65,495.25 -1.65,3.25"/>
    </edge>
    <edge id="3_4" from="3" to="4" priority="2">
        <lane id="3_4_0" index="0" speed="13.41" length="490.50" shape="4.75,498.35 495.25,498.35"/>
    </edge>
    <edge id="3_6" from="3" to="6" priority="2">
        <lane id="3_6_0" index="0" speed="13.41" length="492.00" shape="1.65,504.75 1.65,996.75"/>
    </edge>
    <edge id="4_1" from="4" to="1" priority="2">
        <lane id="4_1_0" index="0" speed="13.41" length="490.50" shape="498.35,495.25 498.35,4.75"/>
    </edge>
    <edge id="4_3" from="4" to="3" priority="2">
        <lane id="4_3_0" index="0" speed="13.41" length="490.50" shape="495.25,501.65 4.75,501.65"/>
    </edge>
    <edge id="4_5" from="4" to="5" priority="2">
        <lane id="4_5_0" index="0" speed="13.41" length="490.50" shape="504.75,498.35 995.25,498.35"/>
    </edge>
    <edge id="4_7" from="4" to="7" priority="2">
        <lane id="4_7_0" index="0" speed="13.41" length="490.50" shape="501.65,504.75 501.65,995.25"/>
    </edge>
    <edge id="5_2" from="5" to="2" priority="2">
        <lane id="5_2_0" index="0" speed="13.41" length="492.00" shape="998.35,495.25 998.35,3.25"/>
    </edge>
    <edge id="5_4" from="5" to="4" priority="2">
        <lane id="5_4_0" index="0" speed="13.41" length="490.50" shape="995.25,501.65 504.75,501.65"/>
    </edge>
    <edge id="5_8" from="5" to="8" priority="2">
        <lane id="5_8_0" index="0" speed="13.41" length="492.00" shape="1001.65,504.75 1001.65,996.75"/>
    </edge>
    <edge id="6_3" from="6" to="3" priority="2">
        <lane id="6_3_0" index="0" speed="13.41" length="492.00" shape="-1.65,996.75 -1.65,504.75"/>
    </edge>
    <edge id="6_7" from="6" to="7" priority="2">
        <lane id="6_7_0" index="0" speed="13.41" length="492.00" shape="3.25,998.35 495.25,998.35"/>
    </edge>
    <edge id="7_4" from="7" to="4" priority="2">
        <lane id="7_4_0" index="0" speed="13.41" length="490.50" shape="498.35,995.25 498.35,504.75"/>
    </edge>
    <edge id="7_6" from="7" to="6" priority="2">
        <lane id="7_6_0" index="0" speed="13.41" length="492.00" shape="495.25,1001.65 3.25,1001.65"/>
    </edge>
    <edge id="7_8" from="7" to="8" priority="2">
        <lane id="7_8_0" index="0" speed="13.41" length="492.00" shape="504.75,998.35 996.75,998.35"/>
    </edge>
    <edge id="8_5" from="8" to="5" priority="2">
        <lane id="8_5_0" index="0" speed="13.41" length="492.00" shape="998.35,996.75 998.35,504.75"/>
    </edge>
    <edge id="8_7" from="8" to="7" priority="2">
        <lane id="8_7_0" index="0" speed="13.41" length="492.00" shape="996.75,1001.65 504.75,1001.65"/>
    </edge>

    <tlLogic id="1" type="static" programID="0" offset="0">
        <phase duration="36" state="rrrGGgGgg"/>
        <phase duration="4" state="rrryygygg"/>
        <phase duration="6" state="rrrrrGrGG"/>
        <phase duration="4" state="rrrrryryy"/>
        <phase duration="36" state="GGgGrrrrr"/>
        <phase duration="4" state="yyyyrrrrr"/>
    </tlLogic>
    <tlLogic id="3" type="static" programID="0" offset="0">
        <phase duration="36" state="GggrrrGGg"/>
        <phase duration="4" state="yggrrryyg"/>
        <phase duration="6" state="rGGrrrrrG"/>
        <phase duration="4" state="ryyrrrrry"/>
        <phase duration="36" state="rrrGGgGrr"/>
        <phase duration="4" state="rrryyyyrr"/>
    </tlLogic>
    <tlLogic id="4" type="static" programID="0" offset="0">
        <phase duration="31" state="GGggrrrrGGggrrrr"/>
        <phase duration="4" state="yyggrrrryyggrrrr"/>
        <phase duration="6" state="rrGGrrrrrrGGrrrr"/>
        <phase duration="4" state="rryyrrrrrryyrrrr"/>
        <phase duration="31" state="rrrrGGggrrrrGGgg"/>
        <phase duration="4" state="rrrryyggrrrryygg"/>
        <phase duration="6" state="rrrrrrGGrrrrrrGG"/>
        <phase duration="4" state="rrrrrryyrrrrrryy"/>
    </tlLogic>
    <tlLogic id="5" type="static" programID="0" offset="0">
        <phase duration="36" state="GGgGggrrr"/>
        <phase duration="4" state="yygyggrrr"/>
        <phase duration="6" state="rrGrGGrrr"/>
        <phase duration="4" state="rryryyrrr"/>
        <phase duration="36" state="GrrrrrGGg"/>
        <phase duration="4" state="yrrrrryyy"/>
    </tlLogic>
    <tlLogic id="7" type="static" programID="0" offset="0">
        <phase duration="36" state="GggrrrGGg"/>
        <phase duration="4" state="yggrrryyg"/>
        <phase duration="6" state="rGGrrrrrG"/>
        <phase duration="4" state="ryyrrrrry"/>
        <phase duration="36" state="rrrGGgGrr"/>
        <phase duration="4" state="rrryyyyrr"/>
    </tlLogic>

    <junction id="0" type="priority" x="0.00" y="0.00" incLanes="3_0_0 1_0_0" intLanes=":0_0_0 :0_4_0 :0_2_0 :0_5_0" shape="-3.25,3.25 3.25,3.25 3.25,-3.25">
        <request index="0" response="0000" foes="1000" cont="0"/>
        <request index="1" response="0100" foes="0100" cont="1"/>
        <request index="2" response="0000" foes="0010" cont="0"/>
        <request index="3" response="0001" foes="0001" cont="1"/>
    </junction>
    <junction id="1" type="traffic_light" x="500.00" y="0.00" incLanes="4_1_0 2_1_0 0_1_0" intLanes=":1_0_0 :1_1_0 :1_9_0 :1_3_0 :1_4_0 :1_10_0 :1_6_0 :1_11_0 :1_12_0" shape="496.75,4.75 503.25,4.75 504.75,3.25 504.75,-3.25 495.25,-3.25 495.25,3.25">
        <request index="0" response="000010000" foes="100010000" cont="0"/>
        <request index="1" response="011010000" foes="011110000" cont="0"/>
        <request index="2" response="010001000" foes="010001000" cont="1"/>
        <request index="3" response="000000000" foes="010000100" cont="0"/>
        <request index="4" response="000000000" foes="110000011" cont="0"/>
        <request index="5" response="001000010" foes="001000010" cont="1"/>
        <request index="6" response="000000000" foes="000100010" cont="0"/>
        <request index="7" response="000011000" foes="000011110" cont="1"/>
        <request index="8" response="000010001" foes="000010001" cont="1"/>
    </junction>
    <junction id="2" type="priority" x="1000.00" y="0.00" incLanes="5_2_0 1_2_0" intLanes=":2_0_0 :2_4_0 :2_2_0 :2_5_0" shape="996.75,3.25 1003.25,3.25 996.75,-3.25">
        <request index="0" response="0000" foes="1000" cont="0"/>
        <request index="1" response="0100" foes="0100" cont="1"/>
        <request index="2" response="0000" foes="0010" cont="0"/>
        <request index="3" response="0001" foes="0001" cont="1"/>
    </junction>
    <junction id="3" type="traffic_light" x="0.00" y="500.00" incLanes="6_3_0 4_3_0 0_3_0" intLanes=":3_0_0 :3_9_0 :3_10_0 :3_3_0 :3_4_0 :3_11_0 :3_6_0 :3_7_0 :3_12_0" shape="-3.25,504.75 3.25,504.75 4.75,503.25 4.75,496.75 3.25,495.25 -3.25,495.25">
        <request index="0" response="000000000" foes="100010000" cont="0"/>
        <request index="1" response="011000000" foes="011110000" cont="1"/>
        <request index="2" response="010001000" foes="010001000" cont="1"/>
        <request index="3" response="010000000" foes="010000100" cont="0"/>
        <request index="4" response="010000011" foes="110000011" cont="0"/>
        <request index="5" response="001000010" foes="001000010" cont="1"/>
        <request index="6" response="000000000" foes="000100010" cont="0"/>
        <request index="7" response="000000000" foes="000011110" cont="0"/>
        <request index="8" response="000010001" foes="000010001" cont="1"/>
    </junction>
    <junction id="4" type="traffic_light" x="500.00" y="500.00" incLanes="7_4_0 5_4_0 1_4_0 3_4_0" intLanes=":4_0_0 :4_1_0 :4_16_0 :4_17_0 :4_4_0 :4_5_0 :4_18_0 :4_19_0 :4_8_0 :4_9_0 :4_20_0 :4_21_0 :4_12_0 :4_13_0 :4_22_0 :4_23_0" shape="496.75,504.75 503.25,504.75 504.75,503.25 504.75,496.75 503.25,495.25 496.75,495.25 495.25,496.75 495.25,503.25">
        <request index="0" response="0000000000000000" foes="1000010000100000" cont="0"/>
        <request index="1" response="0000000000000000" foes="0111110001100000" cont="0"/>
        <request index="2" response="0000001100000000" foes="0110001111100000" cont="1"/>
        <request index="3" response="0100001000010000" foes="0100001000010000" cont="1"/>
        <request index="4" response="0000001000000000" foes="0100001000001000" cont="0"/>
        <request index="5" response="0000011000000111" foes="1100011000000111" cont="0"/>
        <request index="6" response="0011011000000110" foes="0011111000000110" cont="1"/>
        <request index="7" response="0010000100000100" foes="0010000100000100" cont="1"/>
        <request index="8" response="0000000000000000" foes="0010000010000100" cont="0"/>
        <request index="9" response="0000000000000000" foes="0110000001111100" cont="0"/>
        <request index="10" response="0000000000000011" foes="1110000001100011" cont="1"/>
        <request index="11" response="0001000001000010" foes="0001000001000010" cont="1"/>
        <request index="12" response="0000000000000010" foes="0000100001000010" cont="0"/>
        <request index="13" response="0000011100000110" foes="0000011111000110" cont="0"/>
        <request index="14" response="0000011000110110" foes="0000011000111110" cont="1"/>
        <request index="15" response="0000010000100001" foes="0000010000100001" cont="1"/>
    </junction>
    <junction id="5" type="traffic_light" x="1000.00" y="500.00" incLanes="8_5_0 2_5_0 4_5_0" intLanes=":5_0_0 :5_1_0 :5_9_0 :5_3_0 :5_10_0 :5_11_0 :5_6_0 :5_7_0 :5_12_0" shape="996.75,504.75 1003.25,504.75 1003.25,495.25 996.75,495.25 995.25,496.75 995.25,503.25">
        <request index="0" response="000000000" foes="100010000" cont="0"/>
        <request index="1" response="000000000" foes="011110000" cont="0"/>
        <request index="2" response="010001000" foes="010001000" cont="1"/>
        <request index="3" response="000000000" foes="010000100" cont="0"/>
        <request index="4" response="000000011" foes="110000011" cont="1"/>
        <request index="5" response="001000010" foes="001000010" cont="1"/>
        <request index="6" response="000000010" foes="000100010" cont="0"/>
        <request index="7" response="000011010" foes="000011110" cont="0"/>