<edges>
		<edge id="0_1" from="0" to="1" priority="2" numLanes="1" speed="13.41"/>
        <edge id="1_0" from="1" to="0" priority="2" numLanes="1" speed="13.41"/>
        <edge id="0_3" from="0" to="3" priority="2" numLanes="1" speed="13.41"/>
        <edge id="3_0" from="3" to="0" priority="2" numLanes="1" speed="13.41"/>
        <edge id="1_2" from="1" to="2" priority="2" numLanes="1" speed="13.41"/>
        <edge id="2_1" from="2" to="1" priority="2" numLanes="1" speed="13.41"/>
        <edge id="1_4" from="1" to="4" priority="2" numLanes="1" speed="13.41"/>
        <edge id="4_1" from="4" to="1" priority="2" numLanes="1" speed="13.41"/>
        <edge id="2_5" from="2" to="5" priority="2" numLanes="1" speed="13.41"/>
        <edge id="5_2" from="5" to="2" priority="2" numLanes="1" speed="13.41"/>
        <edge id="3_4" from="3" to="4" priority="2" numLanes="1" speed="13.41"/>
        <edge id="4_3" from="4" to="3" priority="2" numLanes="1" speed="13.41"/>
        <edge id="3_6" from="3" to="6" priority="2" numLanes="1" speed="13.41"/>
        <edge id="6_3" from="6" to="3" priority="2" numLanes="1" speed="13.41"/>
        <edge id="4_5" from="4" to="5" priority="2" numLanes="1" speed="13.41"/>
        <edge id="5_4" from="5" to="4" priority="2" numLanes="1" speed="13.41"/>
        <edge id="4_7" from="4" to="7" priority="2" numLanes="1" speed="13.41"/>
        <edge id="7_4" from="7" to="4" priority="2" numLanes="1" speed="13.41"/>
        <edge id="5_8" from="5" to="8" priority="2" numLanes="1" speed="13.41"/>
        <edge id="8_5" from="8" to="5" priority="2" numLanes="1" speed="13.41"/>
        <edge id="6_7" from="6" to="7" priority="2" numLanes="1" speed="13.41"/>
        <edge id="7_6" from="7" to="6" priority="2" numLanes="1" speed="13.41"/>
        <edge id="7_8" from="7" to="8" priority="2" numLanes="1" speed="13.41"/>
        <edge id="8_7" from="8" to="7" priority="2" numLanes="1" speed="13.41"/>
       
</edges>
