<?xml version="1.0" encoding="UTF-8"?>

<!-- generated on 7/26/2016 4:43:14 PM by Netedit Version 0.27.0
<?xml version="1.0" encoding="UTF-8"?>

<configuration xmlns:xsi="http://www.w3.org/2001/XMLSchema-instance" xsi:noNamespaceSchemaLocation="http://sumo.dlr.de/xsd/netedit.exeConfiguration.xsd">

    <input>
        <sumo-net-file value="D:\Project%20Code\sumo_sim\umassd\network\umassd.net.xml"/>
    </input>

    <output>
        <output-file value="D:\Project%20Code\sumo_sim\umassd\network\umassd.net.xml"/>
    </output>

    <processing>
        <no-turnarounds value="true"/>
        <offset.disable-normalization value="true"/>
        <lefthand value="false"/>
        <junctions.corner-detail value="0"/>
    </processing>

</configuration>
-->

<net version="0.27" xmlns:xsi="http://www.w3.org/2001/XMLSchema-instance" xsi:noNamespaceSchemaLocation="http://sumo.dlr.de/xsd/net_file.xsd">

    <location netOffset="-332168.44,-4609727.80" convBoundary="0.00,0.00,1448.10,1362.64" origBoundary="-71.014650,41.621688,-70.997432,41.634031" projParameter="+proj=utm +zone=19 +ellps=WGS84 +datum=WGS84 +units=m +no_defs"/>

    <edge id=":-12827_0" function="internal">
        <lane id=":-12827_0_0" index="0" disallow="tram rail_urban rail rail_electric ship" speed="13.89" length="9.53" shape="353.05,166.90 350.03,175.94"/>
    </edge>
    <edge id=":-12827_1" function="internal">
        <lane id=":-12827_1_0" index="0" disallow="tram rail_urban rail rail_electric ship" speed="13.89" length="5.38" shape="353.05,166.90 351.67,169.64 349.86,171.08"/>
    </edge>
    <edge id=":-12827_2" function="internal">
        <lane id=":-12827_2_0" index="0" disallow="tram rail_urban rail rail_electric ship" speed="13.89" length="2.41" shape="353.05,166.90 351.87,167.81 350.96,167.94"/>
    </edge>
    <edge id=":-12827_9" function="internal">
        <lane id=":-12827_9_0" index="0" speed="13.89" length="5.60" shape="349.86,171.08 349.77,171.15 347.36,171.45 344.44,170.52"/>
    </edge>
    <edge id=":-12827_10" function="internal">
        <lane id=":-12827_10_0" index="0" speed="13.89" length="2.41" shape="350.96,167.94 350.31,167.29 349.92,165.85"/>
    </edge>
    <edge id=":-12827_3" function="internal">
        <lane id=":-12827_3_0" index="0" disallow="tram rail_urban rail rail_electric ship" speed="13.89" length="5.16" shape="345.88,167.55 347.25,167.98 348.38,167.85 349.27,167.13 349.92,165.85"/>
    </edge>
    <edge id=":-12827_4" function="internal">
        <lane id=":-12827_4_0" index="0" disallow="tram rail_urban rail rail_electric ship" speed="13.89" length="10.39" shape="345.88,167.55 348.38,169.16 349.90,171.09 350.45,173.35 350.03,175.94"/>
    </edge>
    <edge id=":-12827_5" function="internal">
        <lane id=":-12827_5_0" index="0" disallow="tram rail_urban rail rail_electric ship" speed="13.89" length="4.82" shape="345.88,167.55 346.63,168.83 346.65,169.75 345.92,170.32 344.44,170.52"/>
    </edge>
    <edge id=":-12827_6" function="internal">
        <lane id=":-12827_6_0" index="0" disallow="tram rail_urban rail rail_electric ship" speed="13.89" length="5.55" shape="346.89,174.90 347.08,173.60 346.74,172.43 345.86,171.41 344.44,170.52"/>
    </edge>
    <edge id=":-12827_7" function="internal">
        <lane id=":-12827_7_0" index="0" disallow="tram rail_urban rail rail_electric ship" speed="13.89" length="9.55" shape="346.89,174.90 349.92,165.85"/>
    </edge>
    <edge id=":-12827_8" function="internal">
        <lane id=":-12827_8_0" index="0" disallow="tram rail_urban rail rail_electric ship" speed="13.89" length="2.41" shape="346.89,174.90 348.07,173.99 348.98,173.86"/>
    </edge>
    <edge id=":-12827_11" function="internal">
        <lane id=":-12827_11_0" index="0" speed="13.89" length="2.41" shape="348.98,173.86 349.63,174.51 350.03,175.94"/>
    </edge>
    <edge id=":-12830_0" function="internal">
        <lane id=":-12830_0_0" index="0" disallow="tram rail_urban rail rail_electric ship" speed="13.89" length="9.98" shape="329.90,221.22 324.95,229.88"/>
    </edge>
    <edge id=":-12830_1" function="internal">
        <lane id=":-12830_1_0" index="0" disallow="tram rail_urban rail rail_electric ship" speed="13.89" length="4.72" shape="329.90,221.22 328.40,222.98 326.27,224.09"/>
    </edge>
    <edge id=":-12830_2" function="internal">
        <lane id=":-12830_2_0" index="0" disallow="tram rail_urban rail rail_electric ship" speed="13.89" length="2.41" shape="329.90,221.22 328.57,221.88 327.65,221.83"/>
    </edge>
    <edge id=":-12830_9" function="internal">
        <lane id=":-12830_9_0" index="0" speed="13.89" length="6.14" shape="326.27,224.09 323.53,224.55 320.17,224.35"/>
    </edge>
    <edge id=":-12830_10" function="internal">
        <lane id=":-12830_10_0" index="0" speed="13.89" length="2.41" shape="327.65,221.83 327.14,221.06 327.04,219.57"/>
    </edge>
    <edge id=":-12830_3" function="internal">
        <lane id=":-12830_3_0" index="0" disallow="tram rail_urban rail rail_electric ship" speed="13.89" length="6.94" shape="320.63,221.09 322.96,221.26 324.80,221.07 326.16,220.51 327.04,219.57"/>
    </edge>
    <edge id=":-12830_4" function="internal">
        <lane id=":-12830_4_0" index="0" disallow="tram rail_urban rail rail_electric ship" speed="13.89" length="12.52" shape="320.63,221.09 324.14,222.09 326.03,223.89 326.30,226.49 324.95,229.88"/>
    </edge>
    <edge id=":-12830_5" function="internal">
        <lane id=":-12830_5_0" index="0" disallow="tram rail_urban rail rail_electric ship" speed="13.89" length="4.82" shape="320.63,221.09 321.74,222.08 322.04,222.95 321.51,223.71 320.17,224.35"/>
    </edge>
    <edge id=":-12830_6" function="internal">
        <lane id=":-12830_6_0" index="0" disallow="tram rail_urban rail rail_electric ship" speed="13.89" length="5.54" shape="322.08,228.24 322.68,226.74 322.56,225.60 321.72,224.80 320.17,224.35"/>
    </edge>
    <edge id=":-12830_7" function="internal">
        <lane id=":-12830_7_0" index="0" disallow="tram rail_urban rail rail_electric ship" speed="13.89" length="9.99" shape="322.08,228.24 327.04,219.57"/>
    </edge>
    <edge id=":-12830_8" function="internal">
        <lane id=":-12830_8_0" index="0" disallow="tram rail_urban rail rail_electric ship" speed="13.89" length="2.41" shape="322.08,228.24 323.41,227.58 324.33,227.63"/>
    </edge>
    <edge id=":-12830_11" function="internal">
        <lane id=":-12830_11_0" index="0" speed="13.89" length="2.41" shape="324.33,227.63 324.84,228.40 324.95,229.88"/>
    </edge>
    <edge id=":-12833_0" function="internal">
        <lane id=":-12833_0_0" index="0" disallow="tram rail_urban rail rail_electric ship" speed="13.89" length="9.59" shape="272.80,218.96 263.27,217.93"/>
    </edge>
    <edge id=":-12833_1" function="internal">
        <lane id=":-12833_1_0" index="0" disallow="tram rail_urban rail rail_electric ship" speed="13.89" length="5.28" shape="272.80,218.96 270.08,218.28 268.22,216.87 268.16,216.74"/>
    </edge>
    <edge id=":-12833_2" function="internal">
        <lane id=":-12833_2_0" index="0" disallow="tram rail_urban rail rail_electric ship" speed="13.89" length="2.41" shape="272.80,218.96 271.65,218.01 271.32,217.15"/>
    </edge>
    <edge id=":-12833_9" function="internal">
        <lane id=":-12833_9_0" index="0" speed="13.89" length="5.09" shape="268.16,216.74 267.21,214.74 267.05,211.87"/>
    </edge>
    <edge id=":-12833_10" function="internal">
        <lane id=":-12833_10_0" index="0" speed="13.89" length="2.41" shape="271.32,217.15 271.81,216.37 273.13,215.67"/>
    </edge>
    <edge id=":-12833_3" function="internal">
        <lane id=":-12833_3_0" index="0" disallow="tram rail_urban rail rail_electric ship" speed="13.89" length="5.11" shape="270.34,212.14 270.41,213.57 270.90,214.64 271.81,215.34 273.13,215.67"/>
    </edge>
    <edge id=":-12833_4" function="internal">
        <lane id=":-12833_4_0" index="0" disallow="tram rail_urban rail rail_electric ship" speed="13.89" length="10.49" shape="270.34,212.14 269.69,214.96 268.30,216.86 266.16,217.85 263.27,217.93"/>
    </edge>
    <edge id=":-12833_5" function="internal">
        <lane id=":-12833_5_0" index="0" disallow="tram rail_urban rail rail_electric ship" speed="13.89" length="4.82" shape="270.34,212.14 269.41,213.31 268.56,213.65 267.77,213.17 267.05,211.87"/>
    </edge>
    <edge id=":-12833_6" function="internal">
        <lane id=":-12833_6_0" index="0" disallow="tram rail_urban rail rail_electric ship" speed="13.89" length="5.04" shape="263.65,214.65 265.04,214.61 266.07,214.14 266.74,213.22 267.05,211.87"/>
    </edge>
    <edge id=":-12833_7" function="internal">
        <lane id=":-12833_7_0" index="0" disallow="tram rail_urban rail rail_electric ship" speed="13.89" length="9.53" shape="263.65,214.65 273.13,215.67"/>
    </edge>
    <edge id=":-12833_8" function="internal">
        <lane id=":-12833_8_0" index="0" disallow="tram rail_urban rail rail_electric ship" speed="13.89" length="2.41" shape="263.65,214.65 264.79,215.61 265.10,216.48"/>
    </edge>
    <edge id=":-12833_11" function="internal">
        <lane id=":-12833_11_0" index="0" speed="13.89" length="2.41" shape="265.10,216.48 264.60,217.25 263.27,217.93"/>
    </edge>
    <edge id=":-12834_0" function="internal">
        <lane id=":-12834_0_0" index="0" disallow="tram rail_urban rail rail_electric ship" speed="13.89" length="30.58" shape="298.96,402.76 295.44,397.68 290.37,390.11 285.37,382.50 282.08,377.27"/>
    </edge>
    <edge id=":-12834_1" function="internal">
        <lane id=":-12834_1_0" index="0" disallow="tram rail_urban rail rail_electric ship" speed="13.89" length="31.09" shape="298.96,402.76 296.20,397.19 292.88,388.53 289.85,379.72 287.93,373.74"/>
    </edge>
    <edge id=":-12834_2" function="internal">
        <lane id=":-12834_2_0" index="0" disallow="tram rail_urban rail rail_electric ship" speed="13.89" length="2.41" shape="298.96,402.76 298.90,401.27 299.33,400.46"/>
    </edge>
    <edge id=":-12834_9" function="internal">
        <lane id=":-12834_9_0" index="0" speed="13.89" length="2.41" shape="299.33,400.46 300.24,400.30 301.63,400.82"/>
    </edge>
    <edge id=":-12834_3" function="internal">
        <lane id=":-12834_3_0" index="0" disallow="tram rail_urban rail rail_electric ship" speed="13.89" length="30.19" shape="291.04,372.60 292.88,378.46 295.77,386.99 298.94,395.38 301.63,400.82"/>
    </edge>
    <edge id=":-12834_4" function="internal">
        <lane id=":-12834_4_0" index="0" disallow="tram rail_urban rail rail_electric ship" speed="13.89" length="42.97" shape="291.04,372.60 294.98,388.01 294.81,393.92 290.51,390.34 282.08,377.27"/>
    </edge>
    <edge id=":-12834_5" function="internal">
        <lane id=":-12834_5_0" index="0" disallow="tram rail_urban rail rail_electric ship" speed="13.89" length="4.83" shape="291.04,372.60 290.69,374.05 290.05,374.72 289.13,374.62 287.93,373.74"/>
    </edge>
    <edge id=":-12834_6" function="internal">
        <lane id=":-12834_6_0" index="0" disallow="tram rail_urban rail rail_electric ship" speed="13.89" length="15.07" shape="284.78,375.36 287.74,379.95 289.25,381.21 289.32,379.14 287.93,373.74"/>
    </edge>
    <edge id=":-12834_7" function="internal">
        <lane id=":-12834_7_0" index="0" disallow="tram rail_urban rail rail_electric ship" speed="13.89" length="30.54" shape="284.78,375.36 288.07,380.59 293.06,388.19 298.12,395.74 301.63,400.82"/>
    </edge>
    <edge id=":-12834_8" function="internal">
        <lane id=":-12834_8_0" index="0" disallow="tram rail_urban rail rail_electric ship" speed="13.89" length="2.57" shape="284.78,375.36 284.82,376.85 284.39,377.67 284.23,377.69"/>
    </edge>
    <edge id=":-12834_10" function="internal">
        <lane id=":-12834_10_0" index="0" speed="13.89" length="2.26" shape="284.23,377.69 283.47,377.81 282.08,377.27"/>
    </edge>
    <edge id=":-12843_0" function="internal">
        <lane id=":-12843_0_0" index="0" disallow="tram rail_urban rail rail_electric ship" speed="13.89" length="9.23" shape="437.96,514.36 432.60,521.87"/>
    </edge>
    <edge id=":-12843_1" function="internal">
        <lane id=":-12843_1_0" index="0" disallow="tram rail_urban rail rail_electric ship" speed="13.89" length="4.75" shape="437.96,514.36 436.10,516.12 434.06,516.90"/>
    </edge>
    <edge id=":-12843_2" function="internal">
        <lane id=":-12843_2_0" index="0" disallow="tram rail_urban rail rail_electric ship" speed="13.89" length="2.41" shape="437.96,514.36 436.56,514.83 435.65,514.66"/>
    </edge>
    <edge id=":-12843_9" function="internal">
        <lane id=":-12843_9_0" index="0" speed="13.89" length="5.48" shape="434.06,516.90 433.95,516.94 431.51,516.83 428.79,515.78"/>
    </edge>
    <edge id=":-12843_10" function="internal">
        <lane id=":-12843_10_0" index="0" speed="13.89" length="2.41" shape="435.65,514.66 435.25,513.83 435.35,512.34"/>
    </edge>
    <edge id=":-12843_3" function="internal">
        <lane id=":-12843_3_0" index="0" disallow="tram rail_urban rail rail_electric ship" speed="13.89" length="5.55" shape="430.33,512.86 431.87,513.48 433.23,513.60 434.38,513.22 435.35,512.34"/>
    </edge>
    <edge id=":-12843_4" function="internal">
        <lane id=":-12843_4_0" index="0" disallow="tram rail_urban rail rail_electric ship" speed="13.89" length="10.86" shape="430.33,512.86 432.77,514.64 433.96,516.74 433.90,519.15 432.60,521.87"/>
    </edge>
    <edge id=":-12843_5" function="internal">
        <lane id=":-12843_5_0" index="0" disallow="tram rail_urban rail rail_electric ship" speed="13.89" length="4.82" shape="430.33,512.86 431.04,514.17 431.02,515.09 430.26,515.63 428.79,515.78"/>
    </edge>
    <edge id=":-12843_6" function="internal">
        <lane id=":-12843_6_0" index="0" disallow="tram rail_urban rail rail_electric ship" speed="13.89" length="5.13" shape="429.86,520.03 430.47,518.75 430.50,517.61 429.94,516.62 428.79,515.78"/>
    </edge>
    <edge id=":-12843_7" function="internal">
        <lane id=":-12843_7_0" index="0" disallow="tram rail_urban rail rail_electric ship" speed="13.89" length="9.45" shape="429.86,520.03 435.35,512.34"/>
    </edge>
    <edge id=":-12843_8" function="internal">
        <lane id=":-12843_8_0" index="0" disallow="tram rail_urban rail rail_electric ship" speed="13.89" length="2.52" shape="429.86,520.03 431.23,519.46 432.15,519.58 432.20,519.68"/>
    </edge>
    <edge id=":-12843_11" function="internal">
        <lane id=":-12843_11_0" index="0" speed="13.89" length="2.30" shape="432.20,519.68 432.60,520.38 432.60,521.87"/>
    </edge>
    <edge id=":-12853_0" function="internal">
        <lane id=":-12853_0_0" index="0" disallow="tram rail_urban rail rail_electric ship" speed="13.89" length="11.19" shape="280.68,340.06 280.17,335.77 279.44,334.10 278.50,335.03 277.33,338.57"/>
    </edge>
    <edge id=":-12853_1" function="internal">
        <lane id=":-12853_1_0" index="0" disallow="tram rail_urban rail rail_electric ship" speed="13.89" length="25.60" shape="280.68,340.06 280.30,334.64 279.91,327.22 279.83,319.83 280.39,314.51"/>
    </edge>
    <edge id=":-12853_2" function="internal">
        <lane id=":-12853_2_0" index="0" disallow="tram rail_urban rail rail_electric ship" speed="13.89" length="4.82" shape="280.68,340.06 281.46,338.79 282.27,338.35 283.11,338.73 283.98,339.94"/>
    </edge>
    <edge id=":-12853_3" function="internal">
        <lane id=":-12853_3_0" index="0" disallow="tram rail_urban rail rail_electric ship" speed="13.89" length="24.63" shape="283.57,315.37 283.03,320.54 283.15,327.60 283.58,334.68 283.98,339.94"/>
    </edge>
    <edge id=":-12853_4" function="internal">
        <lane id=":-12853_4_0" index="0" disallow="tram rail_urban rail rail_electric ship" speed="13.89" length="24.02" shape="283.57,315.37 282.22,320.35 280.44,326.97 278.66,333.58 277.33,338.57"/>
    </edge>
    <edge id=":-12853_5" function="internal">
        <lane id=":-12853_5_0" index="0" disallow="tram rail_urban rail rail_electric ship" speed="13.89" length="2.41" shape="283.57,315.37 282.45,316.35 281.55,316.53"/>
    </edge>
    <edge id=":-12853_9" function="internal">
        <lane id=":-12853_9_0" index="0" speed="13.89" length="2.41" shape="281.55,316.53 280.86,315.92 280.39,314.51"/>
    </edge>
    <edge id=":-12853_6" function="internal">
        <lane id=":-12853_6_0" index="0" disallow="tram rail_urban rail rail_electric ship" speed="13.89" length="24.92" shape="273.78,338.53 275.19,333.42 277.09,326.52 278.99,319.62 280.39,314.51"/>
    </edge>
    <edge id=":-12853_7" function="internal">
        <lane id=":-12853_7_0" index="0" disallow="tram rail_urban rail rail_electric ship" speed="13.89" length="14.00" shape="273.78,338.53 277.42,327.71 279.11,325.76"/>
    </edge>
    <edge id=":-12853_8" function="internal">
        <lane id=":-12853_8_0" index="0" disallow="tram rail_urban rail rail_electric ship" speed="13.89" length="3.17" shape="273.78,338.53 274.68,337.21 275.57,336.77 276.08,337.04"/>
    </edge>
    <edge id=":-12853_10" function="internal">
        <lane id=":-12853_10_0" index="0" speed="13.89" length="18.13" shape="279.11,325.76 280.34,324.33 282.52,328.41 283.98,339.94"/>
    </edge>
    <edge id=":-12853_11" function="internal">
        <lane id=":-12853_11_0" index="0" speed="13.89" length="2.02" shape="276.08,337.04 276.46,337.23 277.33,338.57"/>
    </edge>
    <edge id=":-12854_0" function="internal">
        <lane id=":-12854_0_0" index="0" disallow="tram rail_urban rail rail_electric ship" speed="13.89" length="5.03" shape="223.19,241.92 221.81,241.98 220.79,242.46 220.13,243.38 219.82,244.73"/>
    </edge>
    <edge id=":-12854_1" function="internal">
        <lane id=":-12854_1_0" index="0" disallow="tram rail_urban rail rail_electric ship" speed="13.89" length="9.49" shape="223.19,241.92 213.75,240.94"/>
    </edge>
    <edge id=":-12854_2" function="internal">
        <lane id=":-12854_2_0" index="0" disallow="tram rail_urban rail rail_electric ship" speed="13.89" length="2.41" shape="223.19,241.92 222.04,240.97 221.72,240.11"/>
    </edge>
    <edge id=":-12854_9" function="internal">
        <lane id=":-12854_9_0" index="0" speed="13.89" length="2.41" shape="221.72,240.11 222.21,239.33 223.53,238.64"/>
    </edge>
    <edge id=":-12854_3" function="internal">
        <lane id=":-12854_3_0" index="0" disallow="tram rail_urban rail rail_electric ship" speed="13.89" length="9.48" shape="214.10,237.65 223.53,238.64"/>
    </edge>
    <edge id=":-12854_4" function="internal">
        <lane id=":-12854_4_0" index="0" disallow="tram rail_urban rail rail_electric ship" speed="13.89" length="5.11" shape="214.10,237.65 216.79,238.35 218.65,239.76"/>
    </edge>
    <edge id=":-12854_5" function="internal">
        <lane id=":-12854_5_0" index="0" disallow="tram rail_urban rail rail_electric ship" speed="13.89" length="2.41" shape="214.10,237.65 215.24,238.61 215.56,239.47"/>
    </edge>
    <edge id=":-12854_10" function="internal">
        <lane id=":-12854_10_0" index="0" speed="13.89" length="5.21" shape="218.65,239.76 219.66,241.88 219.82,244.73"/>
    </edge>
    <edge id=":-12854_11" function="internal">
        <lane id=":-12854_11_0" index="0" speed="13.89" length="2.41" shape="215.56,239.47 215.07,240.25 213.75,240.94"/>
    </edge>
    <edge id=":-12854_6" function="internal">
        <lane id=":-12854_6_0" index="0" disallow="tram rail_urban rail rail_electric ship" speed="13.89" length="5.10" shape="216.53,244.47 216.46,243.04 215.97,241.98 215.06,241.28 213.75,240.94"/>
    </edge>
    <edge id=":-12854_7" function="internal">
        <lane id=":-12854_7_0" index="0" disallow="tram rail_urban rail rail_electric ship" speed="13.89" length="10.44" shape="216.53,244.47 217.16,241.67 218.54,239.77 220.66,238.75 223.53,238.64"/>
    </edge>
    <edge id=":-12854_8" function="internal">
        <lane id=":-12854_8_0" index="0" disallow="tram rail_urban rail rail_electric ship" speed="13.89" length="4.82" shape="216.53,244.47 217.45,243.30 218.31,242.95 219.10,243.43 219.82,244.73"/>
    </edge>
    <edge id=":-12859_0" function="internal">
        <lane id=":-12859_0_0" index="0" disallow="tram rail_urban rail rail_electric ship" speed="13.89" length="5.03" shape="253.84,216.83 252.46,216.86 251.43,217.34 250.76,218.25 250.44,219.59"/>
    </edge>
    <edge id=":-12859_1" function="internal">
        <lane id=":-12859_1_0" index="0" disallow="tram rail_urban rail rail_electric ship" speed="13.89" length="10.30" shape="253.84,216.83 251.08,216.12 249.18,214.72 248.13,212.64 247.95,209.88"/>
    </edge>
    <edge id=":-12859_2" function="internal">
        <lane id=":-12859_2_0" index="0" disallow="tram rail_urban rail rail_electric ship" speed="13.89" length="4.82" shape="253.84,216.83 252.71,215.87 252.39,215.00 252.90,214.23 254.22,213.55"/>
    </edge>
    <edge id=":-12859_3" function="internal">
        <lane id=":-12859_3_0" index="0" disallow="tram rail_urban rail rail_electric ship" speed="13.89" length="5.12" shape="251.24,210.14 251.33,211.49 251.86,212.51 252.83,213.20 254.22,213.55"/>
    </edge>
    <edge id=":-12859_4" function="internal">
        <lane id=":-12859_4_0" index="0" disallow="tram rail_urban rail rail_electric ship" speed="13.89" length="9.48" shape="251.24,210.14 250.44,219.59"/>
    </edge>
    <edge id=":-12859_5" function="internal">
        <lane id=":-12859_5_0" index="0" disallow="tram rail_urban rail rail_electric ship" speed="13.89" length="2.41" shape="251.24,210.14 250.32,211.31 249.46,211.66"/>
    </edge>
    <edge id=":-12859_9" function="internal">
        <lane id=":-12859_9_0" index="0" speed="13.89" length="2.41" shape="249.46,211.66 248.67,211.18 247.95,209.88"/>
    </edge>
    <edge id=":-12859_6" function="internal">
        <lane id=":-12859_6_0" index="0" disallow="tram rail_urban rail rail_electric ship" speed="13.89" length="9.45" shape="247.15,219.30 247.95,209.88"/>
    </edge>
    <edge id=":-12859_7" function="internal">
        <lane id=":-12859_7_0" index="0" disallow="tram rail_urban rail rail_electric ship" speed="13.89" length="5.23" shape="247.15,219.30 247.81,216.50 249.21,214.61"/>
    </edge>
    <edge id=":-12859_8" function="internal">
        <lane id=":-12859_8_0" index="0" disallow="tram rail_urban rail rail_electric ship" speed="13.89" length="2.41" shape="247.15,219.30 248.08,218.14 248.94,217.80"/>
    </edge>
    <edge id=":-12859_10" function="internal">
        <lane id=":-12859_10_0" index="0" speed="13.89" length="5.23" shape="249.21,214.61 251.35,213.63 254.22,213.55"/>
    </edge>
    <edge id=":-12859_11" function="internal">
        <lane id=":-12859_11_0" index="0" speed="13.89" length="2.41" shape="248.94,217.80 249.73,218.29 250.44,219.59"/>
    </edge>
    <edge id=":-12867_0" function="internal">
        <lane id=":-12867_0_0" index="0" disallow="tram rail_urban rail rail_electric ship" speed="13.89" length="9.36" shape="215.13,337.00 205.82,336.09"/>
    </edge>
    <edge id=":-12867_1" function="internal">
        <lane id=":-12867_1_0" index="0" disallow="tram rail_urban rail rail_electric ship" speed="13.89" length="5.10" shape="215.13,337.00 212.44,336.30 210.60,334.89"/>
    </edge>
    <edge id=":-12867_2" function="internal">
        <lane id=":-12867_2_0" index="0" disallow="tram rail_urban rail rail_electric ship" speed="13.89" length="2.41" shape="215.13,337.00 213.99,336.04 213.68,335.18"/>
    </edge>
    <edge id=":-12867_9" function="internal">
        <lane id=":-12867_9_0" index="0" speed="13.89" length="5.16" shape="210.60,334.89 209.60,332.78 209.44,329.97"/>
    </edge>
    <edge id=":-12867_10" function="internal">
        <lane id=":-12867_10_0" index="0" speed="13.89" length="2.41" shape="213.68,335.18 214.18,334.40 215.50,333.72"/>
    </edge>
    <edge id=":-12867_3" function="internal">
        <lane id=":-12867_3_0" index="0" disallow="tram rail_urban rail rail_electric ship" speed="13.89" length="5.04" shape="212.73,330.24 212.80,331.63 213.29,332.68 214.19,333.38 215.50,333.72"/>
    </edge>
    <edge id=":-12867_4" function="internal">
        <lane id=":-12867_4_0" index="0" disallow="tram rail_urban rail rail_electric ship" speed="13.89" length="10.33" shape="212.73,330.24 212.10,333.00 210.73,334.89 208.64,335.92 205.82,336.09"/>
    </edge>
    <edge id=":-12867_5" function="internal">
        <lane id=":-12867_5_0" index="0" disallow="tram rail_urban rail rail_electric ship" speed="13.89" length="4.82" shape="212.73,330.24 211.80,331.40 210.95,331.75 210.16,331.27 209.44,329.97"/>
    </edge>
    <edge id=":-12867_6" function="internal">
        <lane id=":-12867_6_0" index="0" disallow="tram rail_urban rail rail_electric ship" speed="13.89" length="5.00" shape="206.09,332.80 207.46,332.72 208.47,332.22 209.13,331.30 209.44,329.97"/>
    </edge>
    <edge id=":-12867_7" function="internal">
        <lane id=":-12867_7_0" index="0" disallow="tram rail_urban rail rail_electric ship" speed="13.89" length="9.45" shape="206.09,332.80 215.50,333.72"/>
    </edge>
    <edge id=":-12867_8" function="internal">
        <lane id=":-12867_8_0" index="0" disallow="tram rail_urban rail rail_electric ship" speed="13.89" length="2.41" shape="206.09,332.80 207.26,333.72 207.60,334.58"/>
    </edge>
    <edge id=":-12867_11" function="internal">
        <lane id=":-12867_11_0" index="0" speed="13.89" length="2.41" shape="207.60,334.58 207.12,335.37 205.82,336.09"/>
    </edge>
    <edge id=":-12869_0" function="internal">
        <lane id=":-12869_0_0" index="0" disallow="tram rail_urban rail rail_electric ship" speed="13.89" length="4.95" shape="273.36,346.60 273.06,345.36 272.42,344.42 271.44,343.78 270.11,343.45"/>
    </edge>
    <edge id=":-12869_1" function="internal">
        <lane id=":-12869_1_0" index="0" disallow="tram rail_urban rail rail_electric ship" speed="13.89" length="7.88" shape="273.36,346.60 273.73,338.73"/>
    </edge>
    <edge id=":-12869_2" function="internal">
        <lane id=":-12869_2_0" index="0" disallow="tram rail_urban rail rail_electric ship" speed="13.89" length="2.74" shape="273.36,346.60 274.07,345.29 274.86,344.80 275.16,344.92"/>
    </edge>
    <edge id=":-12869_9" function="internal">
        <lane id=":-12869_9_0" index="0" speed="13.89" length="2.08" shape="275.16,344.92 275.72,345.14 276.65,346.29"/>
    </edge>
    <edge id=":-12869_3" function="internal">
        <lane id=":-12869_3_0" index="0" disallow="tram rail_urban rail rail_electric ship" speed="13.89" length="7.56" shape="277.28,338.76 276.65,346.29"/>
    </edge>
    <edge id=":-12869_4" function="internal">
        <lane id=":-12869_4_0" index="0" disallow="tram rail_urban rail rail_electric ship" speed="13.89" length="4.14" shape="277.28,338.76 276.30,341.08 275.17,342.24"/>
    </edge>
    <edge id=":-12869_5" function="internal">
        <lane id=":-12869_5_0" index="0" disallow="tram rail_urban rail rail_electric ship" speed="13.89" length="2.86" shape="277.28,338.76 276.38,340.08 275.49,340.52 275.25,340.40"/>
    </edge>
    <edge id=":-12869_10" function="internal">
        <lane id=":-12869_10_0" index="0" speed="13.89" length="5.37" shape="275.17,342.24 274.78,342.64 272.71,343.42 270.11,343.45"/>
    </edge>
    <edge id=":-12869_11" function="internal">
        <lane id=":-12869_11_0" index="0" speed="13.89" length="2.33" shape="275.25,340.40 274.60,340.07 273.73,338.73"/>
    </edge>
    <edge id=":-12869_6" function="internal">
        <lane id=":-12869_6_0" index="0" disallow="tram rail_urban rail rail_electric ship" speed="13.89" length="3.86" shape="270.52,340.17 271.74,340.21 272.68,339.98 273.34,339.49 273.73,338.73"/>
    </edge>
    <edge id=":-12869_7" function="internal">
        <lane id=":-12869_7_0" index="0" disallow="tram rail_urban rail rail_electric ship" speed="13.89" length="9.47" shape="270.52,340.17 273.02,340.82 274.87,342.06 276.08,343.88 276.65,346.29"/>
    </edge>
    <edge id=":-12869_8" function="internal">
        <lane id=":-12869_8_0" index="0" disallow="tram rail_urban rail rail_electric ship" speed="13.89" length="4.82" shape="270.52,340.17 271.65,341.14 271.95,342.01 271.44,342.78 270.11,343.45"/>
    </edge>
    <edge id=":-12880_0" function="internal">
        <lane id=":-12880_0_0" index="0" disallow="tram rail_urban rail rail_electric ship" speed="13.89" length="5.39" shape="359.92,87.92 359.57,86.41 358.84,85.52 357.72,85.25 356.22,85.61"/>
    </edge>
    <edge id=":-12880_1" function="internal">
        <lane id=":-12880_1_0" index="0" disallow="tram rail_urban rail rail_electric ship" speed="13.89" length="9.81" shape="359.92,87.92 359.00,78.15"/>
    </edge>
    <edge id=":-12880_2" function="internal">
        <lane id=":-12880_2_0" index="0" disallow="tram rail_urban rail rail_electric ship" speed="13.89" length="2.41" shape="359.92,87.92 360.64,86.61 361.43,86.14"/>
    </edge>
    <edge id=":-12880_9" function="internal">
        <lane id=":-12880_9_0" index="0" speed="13.89" length="2.41" shape="361.43,86.14 362.28,86.48 363.20,87.65"/>
    </edge>
    <edge id=":-12880_3" function="internal">
        <lane id=":-12880_3_0" index="0" disallow="tram rail_urban rail rail_electric ship" speed="13.89" length="9.90" shape="362.28,77.79 363.20,87.65"/>
    </edge>
    <edge id=":-12880_4" function="internal">
        <lane id=":-12880_4_0" index="0" disallow="tram rail_urban rail rail_electric ship" speed="13.89" length="4.83" shape="362.28,77.79 362.12,80.24 361.05,82.36"/>
    </edge>