<?xml version="1.0" encoding="UTF-8"?>

<!-- generated on Tue Jun 28 15:08:08 2016 by SUMO netconvert Version 0.21.0
<?xml version="1.0" encoding="UTF-8"?>

<configuration xmlns:xsi="http://www.w3.org/2001/XMLSchema-instance" xsi:noNamespaceSchemaLocation="http://sumo-sim.org/xsd/netconvertConfiguration.xsd">

    <input>
        <osm-files value="/home/shekar/Downloads/umassd_road_nw.osm"/>
    </input>

    <output>
        <output-file value="/home/shekar/Downloads/umassd.net.xml"/>
    </output>

    <projection>
        <proj.utm value="true"/>
    </projection>

</configuration>
-->

<net version="0.13" xmlns:xsi="http://www.w3.org/2001/XMLSchema-instance" xsi:noNamespaceSchemaLocation="http://sumo-sim.org/xsd/net_file.xsd">

    <location netOffset="-332168.44,-4609727.80" convBoundary="0.00,0.00,1448.10,1362.64" origBoundary="-71.014650,41.621688,-70.997432,41.634031" projParameter="+proj=utm +zone=19 +ellps=WGS84 +datum=WGS84 +units=m +no_defs"/>

    <edge id=":-12827_0" function="internal">
        <lane id=":-12827_0_0" index="0" speed="13.89" length="9.53" shape="353.04,166.90 350.02,175.95"/>
    </edge>
    <edge id=":-12827_1" function="internal">
        <lane id=":-12827_1_0" index="0" speed="13.89" length="7.19" shape="353.04,166.90 351.66,169.64 349.77,171.15 348.08,171.36"/>
    </edge>
    <edge id=":-12827_2" function="internal">
        <lane id=":-12827_2_0" index="0" speed="13.89" length="2.41" shape="353.04,166.90 351.87,167.81 350.95,167.94"/>
    </edge>
    <edge id=":-12827_9" function="internal">
        <lane id=":-12827_9_0" index="0" speed="13.89" length="3.78" shape="348.08,171.36 347.36,171.45 344.44,170.53"/>
    </edge>
    <edge id=":-12827_10" function="internal">
        <lane id=":-12827_10_0" index="0" speed="13.89" length="2.41" shape="350.95,167.94 350.31,167.29 349.92,165.85"/>
    </edge>
    <edge id=":-12827_3" function="internal">
        <lane id=":-12827_3_0" index="0" speed="13.89" length="5.16" shape="345.88,167.55 347.25,167.99 348.38,167.85 349.27,167.14 349.92,165.85"/>
    </edge>
    <edge id=":-12827_4" function="internal">
        <lane id=":-12827_4_0" index="0" speed="13.89" length="10.39" shape="345.88,167.55 348.38,169.16 349.90,171.09 350.45,173.35 350.02,175.95"/>
    </edge>
    <edge id=":-12827_5" function="internal">
        <lane id=":-12827_5_0" index="0" speed="13.89" length="4.82" shape="345.88,167.55 346.63,168.83 346.65,169.76 345.92,170.32 344.44,170.53"/>
    </edge>
    <edge id=":-12827_6" function="internal">
        <lane id=":-12827_6_0" index="0" speed="13.89" length="5.56" shape="346.89,174.91 347.08,173.60 346.74,172.43 345.86,171.41 344.44,170.53"/>
    </edge>
    <edge id=":-12827_7" function="internal">
        <lane id=":-12827_7_0" index="0" speed="13.89" length="9.55" shape="346.89,174.91 349.92,165.85"/>
    </edge>
    <edge id=":-12827_8" function="internal">
        <lane id=":-12827_8_0" index="0" speed="13.89" length="2.41" shape="346.89,174.91 348.07,173.99 348.98,173.86"/>
    </edge>
    <edge id=":-12827_11" function="internal">
        <lane id=":-12827_11_0" index="0" speed="13.89" length="2.41" shape="348.98,173.86 349.63,174.51 350.02,175.95"/>
    </edge>
    <edge id=":-12830_0" function="internal">
        <lane id=":-12830_0_0" index="0" speed="13.89" length="9.98" shape="329.90,221.22 324.94,229.88"/>
    </edge>
    <edge id=":-12830_1" function="internal">
        <lane id=":-12830_1_0" index="0" speed="13.89" length="6.74" shape="329.90,221.22 328.39,222.98 326.27,224.09 324.26,224.42"/>
    </edge>
    <edge id=":-12830_2" function="internal">
        <lane id=":-12830_2_0" index="0" speed="13.89" length="2.41" shape="329.90,221.22 328.57,221.88 327.65,221.83"/>
    </edge>
    <edge id=":-12830_9" function="internal">
        <lane id=":-12830_9_0" index="0" speed="13.89" length="4.11" shape="324.26,224.42 323.53,224.55 320.17,224.35"/>
    </edge>
    <edge id=":-12830_10" function="internal">
        <lane id=":-12830_10_0" index="0" speed="13.89" length="2.41" shape="327.65,221.83 327.14,221.06 327.04,219.57"/>
    </edge>
    <edge id=":-12830_3" function="internal">
        <lane id=":-12830_3_0" index="0" speed="13.89" length="6.94" shape="320.63,221.09 322.95,221.26 324.79,221.07 326.16,220.51 327.04,219.57"/>
    </edge>
    <edge id=":-12830_4" function="internal">
        <lane id=":-12830_4_0" index="0" speed="13.89" length="12.51" shape="320.63,221.09 324.14,222.09 326.03,223.89 326.29,226.49 324.94,229.88"/>
    </edge>
    <edge id=":-12830_5" function="internal">
        <lane id=":-12830_5_0" index="0" speed="13.89" length="4.82" shape="320.63,221.09 321.74,222.08 322.04,222.95 321.51,223.71 320.17,224.35"/>
    </edge>
    <edge id=":-12830_6" function="internal">
        <lane id=":-12830_6_0" index="0" speed="13.89" length="5.54" shape="322.08,228.24 322.68,226.74 322.56,225.60 321.72,224.80 320.17,224.35"/>
    </edge>
    <edge id=":-12830_7" function="internal">
        <lane id=":-12830_7_0" index="0" speed="13.89" length="9.99" shape="322.08,228.24 327.04,219.57"/>
    </edge>
    <edge id=":-12830_8" function="internal">
        <lane id=":-12830_8_0" index="0" speed="13.89" length="2.41" shape="322.08,228.24 323.41,227.58 324.33,227.63"/>
    </edge>
    <edge id=":-12830_11" function="internal">
        <lane id=":-12830_11_0" index="0" speed="13.89" length="2.41" shape="324.33,227.63 324.84,228.39 324.94,229.88"/>
    </edge>
    <edge id=":-12833_0" function="internal">
        <lane id=":-12833_0_0" index="0" speed="13.89" length="9.59" shape="272.80,218.96 263.27,217.93"/>
    </edge>
    <edge id=":-12833_1" function="internal">
        <lane id=":-12833_1_0" index="0" speed="13.89" length="10.37" shape="272.80,218.96 270.08,218.28 268.21,216.87 267.20,214.74 267.04,211.87"/>
    </edge>
    <edge id=":-12833_2" function="internal">
        <lane id=":-12833_2_0" index="0" speed="13.89" length="2.41" shape="272.80,218.96 271.65,218.01 271.32,217.15"/>
    </edge>
    <edge id=":-12833_9" function="internal">
        <lane id=":-12833_9_0" index="0" speed="13.89" length="2.41" shape="271.32,217.15 271.81,216.37 273.12,215.67"/>
    </edge>
    <edge id=":-12833_3" function="internal">
        <lane id=":-12833_3_0" index="0" speed="13.89" length="5.11" shape="270.33,212.14 270.41,213.57 270.90,214.64 271.80,215.34 273.12,215.67"/>
    </edge>
    <edge id=":-12833_4" function="internal">
        <lane id=":-12833_4_0" index="0" speed="13.89" length="5.25" shape="270.33,212.14 269.69,214.96 268.29,216.86"/>
    </edge>
    <edge id=":-12833_5" function="internal">
        <lane id=":-12833_5_0" index="0" speed="13.89" length="2.41" shape="270.33,212.14 269.41,213.31 268.55,213.65"/>
    </edge>
    <edge id=":-12833_10" function="internal">
        <lane id=":-12833_10_0" index="0" speed="13.89" length="5.25" shape="268.29,216.86 266.16,217.85 263.27,217.93"/>
    </edge>
    <edge id=":-12833_11" function="internal">
        <lane id=":-12833_11_0" index="0" speed="13.89" length="2.41" shape="268.55,213.65 267.76,213.17 267.04,211.87"/>
    </edge>
    <edge id=":-12833_6" function="internal">
        <lane id=":-12833_6_0" index="0" speed="13.89" length="5.04" shape="263.65,214.65 265.04,214.61 266.07,214.14 266.73,213.22 267.04,211.87"/>
    </edge>
    <edge id=":-12833_7" function="internal">
        <lane id=":-12833_7_0" index="0" speed="13.89" length="9.53" shape="263.65,214.65 273.12,215.67"/>
    </edge>
    <edge id=":-12833_8" function="internal">
        <lane id=":-12833_8_0" index="0" speed="13.89" length="4.82" shape="263.65,214.65 264.78,215.61 265.10,216.48 264.59,217.25 263.27,217.93"/>
    </edge>
    <edge id=":-12834_0" function="internal">
        <lane id=":-12834_0_0" index="0" speed="13.89" length="1.62" shape="298.14,401.62 297.20,400.30"/>
    </edge>
    <edge id=":-12834_1" function="internal">
        <lane id=":-12834_1_0" index="0" speed="13.89" length="1.64" shape="298.14,401.62 297.38,400.17"/>
    </edge>
    <edge id=":-12834_2" function="internal">
        <lane id=":-12834_2_0" index="0" speed="13.89" length="2.41" shape="298.14,401.62 298.08,400.13 298.50,399.31"/>
    </edge>
    <edge id=":-12834_9" function="internal">
        <lane id=":-12834_9_0" index="0" speed="13.89" length="2.41" shape="298.50,399.31 299.41,399.16 300.81,399.68"/>
    </edge>
    <edge id=":-12834_3" function="internal">
        <lane id=":-12834_3_0" index="0" speed="13.89" length="1.60" shape="300.18,398.21 300.81,399.68"/>
    </edge>
    <edge id=":-12834_4" function="internal">
        <lane id=":-12834_4_0" index="0" speed="13.89" length="14.12" shape="300.18,398.21 301.78,403.22 301.82,405.24 300.29,404.26 297.20,400.30"/>
    </edge>
    <edge id=":-12834_5" function="internal">
        <lane id=":-12834_5_0" index="0" speed="13.89" length="4.99" shape="300.18,398.21 300.21,399.75 299.76,400.59 298.82,400.73 297.38,400.17"/>
    </edge>
    <edge id=":-12834_6" function="internal">
        <lane id=":-12834_6_0" index="0" speed="13.89" length="1.57" shape="299.90,398.40 300.81,399.68"/>
    </edge>
    <edge id=":-12834_7" function="internal">
        <lane id=":-12834_7_0" index="0" speed="13.89" length="3.07" shape="299.90,398.40 297.38,400.17"/>
    </edge>
    <edge id=":-12834_8" function="internal">
        <lane id=":-12834_8_0" index="0" speed="13.89" length="2.41" shape="299.90,398.40 299.93,399.89 299.49,400.70"/>
    </edge>
    <edge id=":-12834_10" function="internal">
        <lane id=":-12834_10_0" index="0" speed="13.89" length="2.41" shape="299.49,400.70 298.58,400.84 297.20,400.30"/>
    </edge>
    <edge id=":-12843_0" function="internal">
        <lane id=":-12843_0_0" index="0" speed="13.89" length="9.23" shape="437.96,514.35 432.60,521.87"/>
    </edge>
    <edge id=":-12843_1" function="internal">
        <lane id=":-12843_1_0" index="0" speed="13.89" length="6.70" shape="437.96,514.35 436.10,516.12 433.95,516.94 432.12,516.86"/>
    </edge>
    <edge id=":-12843_2" function="internal">
        <lane id=":-12843_2_0" index="0" speed="13.89" length="2.41" shape="437.96,514.35 436.55,514.83 435.65,514.65"/>
    </edge>
    <edge id=":-12843_9" function="internal">
        <lane id=":-12843_9_0" index="0" speed="13.89" length="3.53" shape="432.12,516.86 431.51,516.83 428.78,515.78"/>
    </edge>
    <edge id=":-12843_10" function="internal">
        <lane id=":-12843_10_0" index="0" speed="13.89" length="2.41" shape="435.65,514.65 435.24,513.82 435.35,512.34"/>
    </edge>
    <edge id=":-12843_3" function="internal">
        <lane id=":-12843_3_0" index="0" speed="13.89" length="5.55" shape="430.33,512.86 431.87,513.48 433.22,513.60 434.38,513.22 435.35,512.34"/>
    </edge>
    <edge id=":-12843_4" function="internal">
        <lane id=":-12843_4_0" index="0" speed="13.89" length="10.86" shape="430.33,512.86 432.77,514.64 433.96,516.73 433.90,519.14 432.60,521.87"/>
    </edge>
    <edge id=":-12843_5" function="internal">
        <lane id=":-12843_5_0" index="0" speed="13.89" length="4.82" shape="430.33,512.86 431.03,514.17 431.01,515.09 430.26,515.63 428.78,515.78"/>
    </edge>
    <edge id=":-12843_6" function="internal">
        <lane id=":-12843_6_0" index="0" speed="13.89" length="5.13" shape="429.85,520.03 430.47,518.74 430.50,517.61 429.94,516.62 428.78,515.78"/>
    </edge>
    <edge id=":-12843_7" function="internal">
        <lane id=":-12843_7_0" index="0" speed="13.89" length="9.45" shape="429.85,520.03 435.35,512.34"/>
    </edge>
    <edge id=":-12843_8" function="internal">
        <lane id=":-12843_8_0" index="0" speed="13.89" length="2.41" shape="429.85,520.03 431.23,519.46 432.14,519.58"/>
    </edge>
    <edge id=":-12843_11" function="internal">
        <lane id=":-12843_11_0" index="0" speed="13.89" length="2.41" shape="432.14,519.58 432.60,520.38 432.60,521.87"/>
    </edge>
    <edge id=":-12853_0" function="internal">
        <lane id=":-12853_0_0" index="0" speed="13.89" length="11.13" shape="280.69,340.05 280.17,335.79 279.44,334.12 278.49,335.05 277.33,338.56"/>
    </edge>
    <edge id=":-12853_1" function="internal">
        <lane id=":-12853_1_0" index="0" speed="13.89" length="25.60" shape="280.69,340.05 280.30,334.63 279.91,327.21 279.83,319.83 280.39,314.50"/>
    </edge>
    <edge id=":-12853_2" function="internal">
        <lane id=":-12853_2_0" index="0" speed="13.89" length="4.82" shape="280.69,340.05 281.47,338.78 282.28,338.34 283.12,338.72 283.98,339.93"/>
    </edge>
    <edge id=":-12853_3" function="internal">
        <lane id=":-12853_3_0" index="0" speed="13.89" length="24.62" shape="283.57,315.37 283.03,320.54 283.15,327.59 283.58,334.67 283.98,339.93"/>
    </edge>
    <edge id=":-12853_4" function="internal">
        <lane id=":-12853_4_0" index="0" speed="13.89" length="24.02" shape="283.57,315.37 282.22,320.35 280.44,326.96 278.66,333.58 277.33,338.56"/>
    </edge>
    <edge id=":-12853_5" function="internal">
        <lane id=":-12853_5_0" index="0" speed="13.89" length="2.41" shape="283.57,315.37 282.45,316.35 281.55,316.53"/>
    </edge>
    <edge id=":-12853_9" function="internal">
        <lane id=":-12853_9_0" index="0" speed="13.89" length="2.41" shape="281.55,316.53 280.86,315.91 280.39,314.50"/>
    </edge>
    <edge id=":-12853_6" function="internal">
        <lane id=":-12853_6_0" index="0" speed="13.89" length="24.92" shape="273.79,338.53 275.19,333.42 277.09,326.52 278.99,319.61 280.39,314.50"/>
    </edge>
    <edge id=":-12853_7" function="internal">
        <lane id=":-12853_7_0" index="0" speed="13.89" length="17.02" shape="273.79,338.53 277.43,327.70 280.34,324.33 280.88,325.33"/>
    </edge>
    <edge id=":-12853_8" function="internal">
        <lane id=":-12853_8_0" index="0" speed="13.89" length="2.59" shape="273.79,338.53 274.69,337.21 275.58,336.77"/>
    </edge>
    <edge id=":-12853_10" function="internal">
        <lane id=":-12853_10_0" index="0" speed="13.89" length="15.10" shape="280.88,325.33 282.52,328.40 283.98,339.93"/>
    </edge>
    <edge id=":-12853_11" function="internal">
        <lane id=":-12853_11_0" index="0" speed="13.89" length="2.59" shape="275.58,336.77 276.46,337.23 277.33,338.56"/>
    </edge>
    <edge id=":-12854_0" function="internal">
        <lane id=":-12854_0_0" index="0" speed="13.89" length="5.03" shape="223.19,241.92 221.81,241.97 220.79,242.46 220.13,243.38 219.82,244.72"/>
    </edge>
    <edge id=":-12854_1" function="internal">
        <lane id=":-12854_1_0" index="0" speed="13.89" length="9.50" shape="223.19,241.92 213.75,240.93"/>
    </edge>
    <edge id=":-12854_2" function="internal">
        <lane id=":-12854_2_0" index="0" speed="13.89" length="2.41" shape="223.19,241.92 222.04,240.97 221.72,240.11"/>
    </edge>
    <edge id=":-12854_9" function="internal">
        <lane id=":-12854_9_0" index="0" speed="13.89" length="2.41" shape="221.72,240.11 222.21,239.33 223.53,238.64"/>
    </edge>
    <edge id=":-12854_3" function="internal">
        <lane id=":-12854_3_0" index="0" speed="13.89" length="9.48" shape="214.10,237.65 223.53,238.64"/>
    </edge>
    <edge id=":-12854_4" function="internal">
        <lane id=":-12854_4_0" index="0" speed="13.89" length="7.08" shape="214.10,237.65 216.79,238.34 218.64,239.75 219.49,241.53"/>
    </edge>
    <edge id=":-12854_5" function="internal">
        <lane id=":-12854_5_0" index="0" speed="13.89" length="2.41" shape="214.10,237.65 215.24,238.60 215.56,239.47"/>
    </edge>
    <edge id=":-12854_10" function="internal">
        <lane id=":-12854_10_0" index="0" speed="13.89" length="3.24" shape="219.49,241.53 219.65,241.88 219.82,244.72"/>
    </edge>
    <edge id=":-12854_11" function="internal">
        <lane id=":-12854_11_0" index="0" speed="13.89" length="2.41" shape="215.56,239.47 215.06,240.24 213.75,240.93"/>
    </edge>
    <edge id=":-12854_6" function="internal">
        <lane id=":-12854_6_0" index="0" speed="13.89" length="5.10" shape="216.53,244.46 216.45,243.04 215.96,241.98 215.06,241.27 213.75,240.93"/>
    </edge>
    <edge id=":-12854_7" function="internal">
        <lane id=":-12854_7_0" index="0" speed="13.89" length="10.44" shape="216.53,244.46 217.16,241.67 218.54,239.76 220.66,238.75 223.53,238.64"/>
    </edge>
    <edge id=":-12854_8" function="internal">
        <lane id=":-12854_8_0" index="0" speed="13.89" length="4.82" shape="216.53,244.46 217.45,243.30 218.31,242.95 219.10,243.43 219.82,244.72"/>
    </edge>
    <edge id=":-12859_0" function="internal">
        <lane id=":-12859_0_0" index="0" speed="13.89" length="5.03" shape="253.84,216.83 252.46,216.87 251.43,217.34 250.76,218.25 250.44,219.59"/>
    </edge>
    <edge id=":-12859_1" function="internal">
        <lane id=":-12859_1_0" index="0" speed="13.89" length="5.21" shape="253.84,216.83 251.08,216.12 249.18,214.72"/>
    </edge>
    <edge id=":-12859_2" function="internal">
        <lane id=":-12859_2_0" index="0" speed="13.89" length="2.41" shape="253.84,216.83 252.71,215.87 252.39,215.00"/>
    </edge>
    <edge id=":-12859_9" function="internal">
        <lane id=":-12859_9_0" index="0" speed="13.89" length="5.09" shape="249.18,214.72 248.13,212.64 247.95,209.89"/>
    </edge>
    <edge id=":-12859_10" function="internal">
        <lane id=":-12859_10_0" index="0" speed="13.89" length="2.41" shape="252.39,215.00 252.90,214.23 254.22,213.55"/>
    </edge>
    <edge id=":-12859_3" function="internal">
        <lane id=":-12859_3_0" index="0" speed="13.89" length="5.12" shape="251.24,210.14 251.33,211.49 251.86,212.51 252.83,213.20 254.22,213.55"/>
    </edge>
    <edge id=":-12859_4" function="internal">
        <lane id=":-12859_4_0" index="0" speed="13.89" length="9.48" shape="251.24,210.14 250.44,219.59"/>
    </edge>
    <edge id=":-12859_5" function="internal">
        <lane id=":-12859_5_0" index="0" speed="13.89" length="4.82" shape="251.24,210.14 250.32,211.31 249.46,211.66 248.67,211.18 247.95,209.89"/>
    </edge>
    <edge id=":-12859_6" function="internal">
        <lane id=":-12859_6_0" index="0" speed="13.89" length="9.45" shape="247.15,219.30 247.95,209.89"/>
    </edge>
    <edge id=":-12859_7" function="internal">
        <lane id=":-12859_7_0" index="0" speed="13.89" length="10.45" shape="247.15,219.30 247.81,216.50 249.21,214.61 251.35,213.63 254.22,213.55"/>
    </edge>
    <edge id=":-12859_8" function="internal">
        <lane id=":-12859_8_0" index="0" speed="13.89" length="2.41" shape="247.15,219.30 248.08,218.14 248.94,217.80"/>
    </edge>
    <edge id=":-12859_11" function="internal">
        <lane id=":-12859_11_0" index="0" speed="13.89" length="2.41" shape="248.94,217.80 249.73,218.29 250.44,219.59"/>
    </edge>
    <edge id=":-12867_0" function="internal">
        <lane id=":-12867_0_0" index="0" speed="13.89" length="9.36" shape="215.13,337.00 205.82,336.09"/>
    </edge>
    <edge id=":-12867_1" function="internal">
        <lane id=":-12867_1_0" index="0" speed="13.89" length="7.01" shape="215.13,337.00 212.44,336.30 210.60,334.89 209.78,333.16"/>
    </edge>
    <edge id=":-12867_2" function="internal">
        <lane id=":-12867_2_0" index="0" speed="13.89" length="2.41" shape="215.13,337.00 213.99,336.04 213.68,335.18"/>
    </edge>
    <edge id=":-12867_9" function="internal">
        <lane id=":-12867_9_0" index="0" speed="13.89" length="3.24" shape="209.78,333.16 209.60,332.78 209.44,329.97"/>
    </edge>
    <edge id=":-12867_10" function="internal">
        <lane id=":-12867_10_0" index="0" speed="13.89" length="2.41" shape="213.68,335.18 214.18,334.40 215.50,333.72"/>
    </edge>
    <edge id=":-12867_3" function="internal">
        <lane id=":-12867_3_0" index="0" speed="13.89" length="5.04" shape="212.73,330.24 212.80,331.64 213.29,332.68 214.19,333.38 215.50,333.72"/>
    </edge>
    <edge id=":-12867_4" function="internal">
        <lane id=":-12867_4_0" index="0" speed="13.89" length="10.33" shape="212.73,330.24 212.10,333.00 210.74,334.89 208.64,335.92 205.82,336.09"/>
    </edge>
    <edge id=":-12867_5" function="internal">
        <lane id=":-12867_5_0" index="0" speed="13.89" length="4.82" shape="212.73,330.24 211.80,331.41 210.95,331.75 210.16,331.27 209.44,329.97"/>
    </edge>
    <edge id=":-12867_6" function="internal">
        <lane id=":-12867_6_0" index="0" speed="13.89" length="5.00" shape="206.09,332.80 207.46,332.72 208.47,332.22 209.13,331.30 209.44,329.97"/>
    </edge>
    <edge id=":-12867_7" function="internal">
        <lane id=":-12867_7_0" index="0" speed="13.89" length="9.45" shape="206.09,332.80 215.50,333.72"/>
    </edge>
    <edge id=":-12867_8" function="internal">
        <lane id=":-12867_8_0" index="0" speed="13.89" length="2.41" shape="206.09,332.80 207.26,333.72 207.60,334.58"/>
    </edge>
    <edge id=":-12867_11" function="internal">
        <lane id=":-12867_11_0" index="0" speed="13.89" length="2.41" shape="207.60,334.58 207.12,335.37 205.82,336.09"/>
    </edge>
    <edge id=":-12869_0" function="internal">
        <lane id=":-12869_0_0" index="0" speed="13.89" length="4.95" shape="273.37,346.59 273.07,345.36 272.43,344.42 271.44,343.78 270.11,343.44"/>
    </edge>
    <edge id=":-12869_1" function="internal">
        <lane id=":-12869_1_0" index="0" speed="13.89" length="7.88" shape="273.37,346.59 273.73,338.72"/>
    </edge>
    <edge id=":-12869_2" function="internal">
        <lane id=":-12869_2_0" index="0" speed="13.89" length="2.40" shape="273.37,346.59 274.08,345.29 274.86,344.80"/>
    </edge>
    <edge id=":-12869_9" function="internal">
        <lane id=":-12869_9_0" index="0" speed="13.89" length="2.40" shape="274.86,344.80 275.72,345.14 276.65,346.29"/>
    </edge>
    <edge id=":-12869_3" function="internal">
        <lane id=":-12869_3_0" index="0" speed="13.89" length="7.56" shape="277.28,338.76 276.65,346.29"/>
    </edge>
    <edge id=":-12869_4" function="internal">
        <lane id=":-12869_4_0" index="0" speed="13.89" length="6.03" shape="277.28,338.76 276.30,341.08 274.78,342.63 273.53,343.11"/>
    </edge>
    <edge id=":-12869_5" function="internal">
        <lane id=":-12869_5_0" index="0" speed="13.89" length="2.59" shape="277.28,338.76 276.38,340.08 275.49,340.51"/>
    </edge>
    <edge id=":-12869_10" function="internal">
        <lane id=":-12869_10_0" index="0" speed="13.89" length="3.48" shape="273.53,343.11 272.72,343.42 270.11,343.44"/>
    </edge>
    <edge id=":-12869_11" function="internal">
        <lane id=":-12869_11_0" index="0" speed="13.89" length="2.59" shape="275.49,340.51 274.61,340.06 273.73,338.72"/>
    </edge>
    <edge id=":-12869_6" function="internal">
        <lane id=":-12869_6_0" index="0" speed="13.89" length="3.87" shape="270.52,340.17 271.75,340.21 272.69,339.98 273.35,339.48 273.73,338.72"/>
    </edge>
    <edge id=":-12869_7" function="internal">
        <lane id=":-12869_7_0" index="0" speed="13.89" length="9.47" shape="270.52,340.17 273.02,340.82 274.87,342.05 276.08,343.88 276.65,346.29"/>
    </edge>
    <edge id=":-12869_8" function="internal">
        <lane id=":-12869_8_0" index="0" speed="13.89" length="4.82" shape="270.52,340.17 271.65,341.14 271.96,342.01 271.44,342.78 270.11,343.44"/>
    </edge>
    <edge id=":-12880_0" function="internal">
        <lane id=":-12880_0_0" index="0" speed="13.89" length="5.39" shape="359.92,87.91 359.58,86.40 358.85,85.52 357.73,85.25 356.22,85.60"/>
    </edge>
    <edge id=":-12880_1" function="internal">
        <lane id=":-12880_1_0" index="0" speed="13.89" length="9.81" shape="359.92,87.91 359.00,78.15"/>
    </edge>
    <edge id=":-12880_2" function="internal">
        <lane id=":-12880_2_0" index="0" speed="13.89" length="2.41" shape="359.92,87.91 360.64,86.61 361.43,86.14"/>
    </edge>
    <edge id=":-12880_9" function="internal">
        <lane id=":-12880_9_0" index="0" speed="13.89" length="2.41" shape="361.43,86.14 362.28,86.48 363.21,87.64"/>
    </edge>
    <edge id=":-12880_3" function="internal">
        <lane id=":-12880_3_0" index="0" speed="13.89" length="9.91" shape="362.28,77.78 363.21,87.64"/>
    </edge>
    <edge id=":-12880_4" function="internal">
        <lane id=":-12880_4_0" index="0" speed="13.89" length="6.90" shape="362.28,77.78 362.12,80.23 361.06,82.35 359.53,83.74"/>
    </edge>
    <edge id=":-12880_5" function="internal">
        <lane id=":-12880_5_0" index="0" speed="13.89" length="2.41" shape="362.28,77.78 361.59,79.10 360.82,79.60"/>
    </edge>
    <edge id=":-12880_10" function="internal">
        <lane id=":-12880_10_0" index="0" speed="13.89" length="3.81" shape="359.53,83.74 359.09,84.14 356.22,85.60"/>
    </edge>
    <edge id=":-12880_11" function="internal">
        <lane id=":-12880_11_0" index="0" speed="13.89" length="2.41" shape="360.82,79.60 359.96,79.28 359.00,78.15"/>
    </edge>
    <edge id=":-12880_6" function="internal">
        <lane id=":-12880_6_0" index="0" speed="13.89" length="6.36" shape="355.03,82.53 356.88,81.63 358.16,80.60 358.86,79.44 359.00,78.15"/>
    </edge>
    <edge id=":-12880_7" function="internal">
        <lane id=":-12880_7_0" index="0" speed="13.89" length="11.93" shape="355.03,82.53 358.36,81.75 360.83,82.34 362.45,84.30 363.21,87.64"/>
    </edge>
    <edge id=":-12880_8" function="internal">
        <lane id=":-12880_8_0" index="0" speed="13.89" length="4.82" shape="355.03,82.53 356.48,82.85 357.16,83.46 357.08,84.38 356.22,85.60"/>
    </edge>
    <edge id=":-12888_0" function="internal">
        <lane id=":-12888_0_0" index="0" speed="13.89" length="9.45" shape="344.12,130.48 343.18,139.88"/>
    </edge>
    <edge id=":-12888_1" function="internal">
        <lane id=":-12888_1_0" index="0" speed="13.89" length="7.11" shape="344.12,130.48 343.43,133.22 342.02,135.09 340.26,135.91"/>
    </edge>
    <edge id=":-12888_2" function="internal">
        <lane id=":-12888_2_0" index="0" speed="13.89" length="2.41" shape="344.12,130.48 343.17,131.62 342.31,131.95"/>
    </edge>
    <edge id=":-12888_9" function="internal">
        <lane id=":-12888_9_0" index="0" speed="13.89" length="3.22" shape="340.26,135.91 339.91,136.07 337.08,136.17"/>
    </edge>
    <edge id=":-12888_10" function="internal">
        <lane id=":-12888_10_0" index="0" speed="13.89" length="2.41" shape="342.31,131.95 341.53,131.45 340.84,130.13"/>
    </edge>
    <edge id=":-12888_3" function="internal">
        <lane id=":-12888_3_0" index="0" speed="13.89" length="5.00" shape="337.43,132.89 338.80,132.84 339.82,132.37 340.50,131.46 340.84,130.13"/>
    </edge>
    <edge id=":-12888_4" function="internal">
        <lane id=":-12888_4_0" index="0" speed="13.89" length="10.30" shape="337.43,132.89 340.17,133.58 342.04,134.98 343.04,137.08 343.18,139.88"/>
    </edge>
    <edge id=":-12888_5" function="internal">
        <lane id=":-12888_5_0" index="0" speed="13.89" length="4.82" shape="337.43,132.89 338.57,133.84 338.89,134.71 338.39,135.48 337.08,136.17"/>
    </edge>
    <edge id=":-12888_6" function="internal">
        <lane id=":-12888_6_0" index="0" speed="13.89" length="5.02" shape="339.89,139.57 339.83,138.21 339.34,137.19 338.42,136.51 337.08,136.17"/>
    </edge>
    <edge id=":-12888_7" function="internal">
        <lane id=":-12888_7_0" index="0" speed="13.89" length="9.48" shape="339.89,139.57 340.84,130.13"/>
    </edge>
    <edge id=":-12888_8" function="internal">
        <lane id=":-12888_8_0" index="0" speed="13.89" length="2.41" shape="339.89,139.57 340.83,138.42 341.69,138.08"/>
    </edge>
    <edge id=":-12888_11" function="internal">
        <lane id=":-12888_11_0" index="0" speed="13.89" length="2.41" shape="341.69,138.08 342.48,138.57 343.18,139.88"/>
    </edge>
    <edge id=":-12889_0" function="internal">
        <lane id=":-12889_0_0" index="0" speed="13.89" length="9.50" shape="158.53,332.09 149.07,331.27"/>
    </edge>
    <edge id=":-12889_1" function="internal">
        <lane id=":-12889_1_0" index="0" speed="13.89" length="6.97" shape="158.53,332.09 155.93,331.45 154.07,330.05 153.16,328.31"/>
    </edge>
    <edge id=":-12889_2" function="internal">
        <lane id=":-12889_2_0" index="0" speed="13.89" length="2.41" shape="158.53,332.09 157.37,331.16 157.04,330.30"/>
    </edge>
    <edge id=":-12889_9" function="internal">
        <lane id=":-12889_9_0" index="0" speed="13.89" length="3.38" shape="153.16,328.31 152.95,327.91 152.57,325.01"/>
    </edge>
    <edge id=":-12889_10" function="internal">
        <lane id=":-12889_10_0" index="0" speed="13.89" length="2.41" shape="157.04,330.30 157.52,329.51 158.83,328.80"/>
    </edge>
    <edge id=":-12889_3" function="internal">
        <lane id=":-12889_3_0" index="0" speed="13.89" length="5.38" shape="155.87,325.00 156.06,326.57 156.61,327.72 157.53,328.47 158.83,328.80"/>
    </edge>
    <edge id=":-12889_4" function="internal">
        <lane id=":-12889_4_0" index="0" speed="13.89" length="10.77" shape="155.87,325.00 155.45,327.96 154.18,329.99 152.05,331.10 149.07,331.27"/>
    </edge>
    <edge id=":-12889_5" function="internal">
        <lane id=":-12889_5_0" index="0" speed="13.89" length="4.82" shape="155.87,325.00 155.05,326.24 154.22,326.66 153.40,326.25 152.57,325.01"/>
    </edge>
    <edge id=":-12889_6" function="internal">
        <lane id=":-12889_6_0" index="0" speed="13.89" length="5.11" shape="149.34,327.99 150.76,327.90 151.77,327.38 152.37,326.41 152.57,325.01"/>
    </edge>
    <edge id=":-12889_7" function="internal">
        <lane id=":-12889_7_0" index="0" speed="13.89" length="9.52" shape="149.34,327.99 158.83,328.80"/>
    </edge>
    <edge id=":-12889_8" function="internal">
        <lane id=":-12889_8_0" index="0" speed="13.89" length="2.41" shape="149.34,327.99 150.51,328.91 150.85,329.77"/>
    </edge>
    <edge id=":-12889_11" function="internal">
        <lane id=":-12889_11_0" index="0" speed="13.89" length="2.41" shape="150.85,329.77 150.37,330.55 149.07,331.27"/>
    </edge>