<?xml version="1.0" encoding="UTF-8"?>

<!-- generated on 2/8/2018 6:29:19 PM by Netedit Version 0.30.0
<?xml version="1.0" encoding="UTF-8"?>

<configuration xmlns:xsi="http://www.w3.org/2001/XMLSchema-instance" xsi:noNamespaceSchemaLocation="http://sumo.dlr.de/xsd/netconvertConfiguration.xsd">

    <input>
        <sumo-net-file value="C:\Users\Shekar\Desktop\laptop\sumo_sim\sf_enriched\network\SF_with_TLS.net.xml"/>
    </input>

    <output>
        <output-file value="C:\Users\Shekar\Desktop\laptop\sumo_sim\sf_enriched\network\SF_with_TLS_combined.net.xml"/>
    </output>

    <processing>
        <no-turnarounds value="true"/>
        <offset.disable-normalization value="true"/>
        <lefthand value="false"/>
        <junctions.corner-detail value="0"/>
        <rectangular-lane-cut value="false"/>
    </processing>

</configuration>
-->

<net version="0.27" xmlns:xsi="http://www.w3.org/2001/XMLSchema-instance" xsi:noNamespaceSchemaLocation="http://sumo.dlr.de/xsd/net_file.xsd">

    <location netOffset="-679322.03,-4820339.81" convBoundary="0.00,0.00,6963.89,10896.37" origBoundary="679322.03,4820339.81,686285.93,4831236.18" projParameter="!"/>

    <edge id=":1_0" function="internal">
        <lane id=":1_0_0" index="0" speed="25.00" length="25.22" shape="598.96,10903.20 590.41,10903.07 584.17,10900.18 580.23,10894.55 578.58,10886.16"/>
        <lane id=":1_0_1" index="1" speed="25.00" length="25.22" shape="598.54,10899.93 591.55,10899.82 586.45,10897.46 583.22,10892.85 581.88,10886.00"/>
        <lane id=":1_0_2" index="2" speed="25.00" length="25.22" shape="598.12,10896.66 592.69,10896.57 588.72,10894.74 586.22,10891.16 585.17,10885.83"/>
    </edge>
    <edge id=":1_3" function="internal">
        <lane id=":1_3_0" index="0" speed="25.00" length="8.35" shape="595.06,10885.33 595.21,10886.07 595.56,10886.57 596.11,10886.82 596.86,10886.84"/>
        <lane id=":1_3_1" index="1" speed="25.00" length="8.35" shape="591.77,10885.50 592.21,10887.77 593.28,10889.29 594.97,10890.07 597.28,10890.11"/>
        <lane id=":1_3_2" index="2" speed="25.00" length="8.35" shape="588.47,10885.66 589.21,10889.46 591.00,10892.02 593.83,10893.32 597.70,10893.38"/>
    </edge>
    <edge id=":10_0" function="internal">
        <lane id=":10_0_0" index="0" speed="13.90" length="30.84" shape="3991.38,3469.77 3978.14,3467.82 3968.67,3466.90 3962.97,3467.02 3961.05,3468.17"/>
    </edge>
    <edge id=":10_1" function="internal">
        <lane id=":10_1_0" index="0" speed="13.90" length="44.22" shape="3991.38,3469.77 3981.81,3468.19 3969.63,3466.24 3957.43,3464.48 3947.79,3463.45"/>
        <lane id=":10_1_1" index="1" speed="13.90" length="44.22" shape="3991.92,3466.51 3982.29,3464.93 3970.00,3462.97 3957.68,3461.19 3948.00,3460.16"/>
    </edge>
    <edge id=":10_3" function="internal">
        <lane id=":10_3_0" index="0" speed="13.90" length="42.98" shape="3991.92,3466.51 3975.62,3463.14 3964.04,3459.11 3957.18,3454.42 3955.03,3449.07"/>
    </edge>
    <edge id=":10_4" function="internal">
        <lane id=":10_4_0" index="0" speed="13.90" length="48.16" shape="3991.92,3466.51 3975.19,3462.75 3969.55,3458.71 3974.99,3454.41 3991.51,3449.85"/>
    </edge>
    <edge id=":10_5" function="internal">
        <lane id=":10_5_0" index="0" speed="13.90" length="10.69" shape="3992.89,3456.30 3989.22,3457.31 3988.02,3458.27 3989.27,3459.16 3992.98,3460.00"/>
    </edge>
    <edge id=":10_6" function="internal">
        <lane id=":10_6_0" index="0" speed="13.90" length="34.65" shape="3992.89,3456.30 3979.00,3459.58 3969.07,3462.65 3963.08,3465.51 3961.05,3468.17"/>
    </edge>
    <edge id=":10_7" function="internal">
        <lane id=":10_7_0" index="0" speed="13.90" length="45.29" shape="3992.89,3456.30 3983.12,3458.39 3970.42,3460.89 3957.67,3462.89 3947.79,3463.45"/>
        <lane id=":10_7_1" index="1" speed="13.90" length="45.29" shape="3992.20,3453.07 3982.57,3455.15 3970.18,3457.63 3957.74,3459.61 3948.00,3460.16"/>
    </edge>
    <edge id=":10_9" function="internal">
        <lane id=":10_9_0" index="0" speed="13.90" length="31.66" shape="3992.20,3453.07 3975.77,3455.83 3964.10,3456.08 3960.93,3455.05"/>
    </edge>
    <edge id=":10_25" function="internal">
        <lane id=":10_25_0" index="0" speed="13.90" length="9.16" shape="3960.93,3455.05 3957.19,3453.82 3955.03,3449.07"/>
    </edge>
    <edge id=":10_10" function="internal">
        <lane id=":10_10_0" index="0" speed="13.90" length="29.88" shape="3961.63,3449.31 3963.40,3450.48 3968.86,3450.42 3978.00,3449.13 3990.83,3446.62"/>
    </edge>
    <edge id=":10_11" function="internal">
        <lane id=":10_11_0" index="0" speed="13.90" length="33.98" shape="3961.63,3449.31 3963.51,3452.06 3969.36,3454.75 3979.18,3457.40 3992.98,3460.00"/>
    </edge>
    <edge id=":10_12" function="internal">
        <lane id=":10_12_0" index="0" speed="13.90" length="18.89" shape="3961.63,3449.31 3961.05,3468.17"/>
        <lane id=":10_12_1" index="1" speed="13.90" length="18.89" shape="3958.33,3449.19 3957.75,3468.09"/>
    </edge>
    <edge id=":10_14" function="internal">
        <lane id=":10_14_0" index="0" speed="13.90" length="7.34" shape="3958.33,3449.19 3957.52,3454.22 3956.42,3456.17"/>
    </edge>
    <edge id=":10_26" function="internal">
        <lane id=":10_26_0" index="0" speed="13.90" length="9.91" shape="3956.42,3456.17 3955.53,3457.73 3952.36,3459.71 3948.00,3460.16"/>
    </edge>
    <edge id=":10_15" function="internal">
        <lane id=":10_15_0" index="0" speed="13.90" length="6.44" shape="3948.42,3453.57 3949.80,3453.36 3950.82,3452.51 3951.46,3451.04 3951.73,3448.94"/>
    </edge>
    <edge id=":10_16" function="internal">
        <lane id=":10_16_0" index="0" speed="13.90" length="43.05" shape="3948.42,3453.57 3957.88,3453.04 3969.70,3451.11 3981.48,3448.67 3990.83,3446.62"/>
    </edge>
    <edge id=":10_17" function="internal">
        <lane id=":10_17_0" index="0" speed="13.90" length="44.87" shape="3948.42,3453.57 3958.20,3454.61 3970.74,3456.42 3983.26,3458.40 3992.98,3460.00"/>
        <lane id=":10_17_1" index="1" speed="13.90" length="44.87" shape="3948.21,3456.86 3957.94,3457.90 3970.37,3459.69 3982.77,3461.67 3992.45,3463.26"/>
    </edge>
    <edge id=":10_19" function="internal">
        <lane id=":10_19_0" index="0" speed="13.90" length="16.65" shape="3948.21,3456.86 3952.48,3457.80 3955.49,3459.98 3957.25,3463.41 3957.75,3468.09"/>
    </edge>
    <edge id=":10_20" function="internal">
        <lane id=":10_20_0" index="0" speed="13.90" length="6.32" shape="3951.15,3467.94 3950.98,3466.06 3950.36,3464.68 3949.30,3463.81 3947.79,3463.45"/>
    </edge>
    <edge id=":10_21" function="internal">
        <lane id=":10_21_0" index="0" speed="13.90" length="18.98" shape="3951.15,3467.94 3951.73,3448.94"/>
        <lane id=":10_21_1" index="1" speed="13.90" length="18.98" shape="3954.45,3468.02 3955.03,3449.07"/>
    </edge>
    <edge id=":10_23" function="internal">
        <lane id=":10_23_0" index="0" speed="13.90" length="4.20" shape="3954.45,3468.02 3956.27,3464.23"/>
    </edge>
    <edge id=":10_24" function="internal">
        <lane id=":10_24_0" index="0" speed="13.90" length="3.67" shape="3954.45,3468.02 3956.25,3464.82"/>
    </edge>
    <edge id=":10_27" function="internal">
        <lane id=":10_27_0" index="0" speed="13.90" length="38.77" shape="3956.27,3464.23 3956.86,3463.01 3963.84,3458.31 3975.39,3453.92 3991.51,3449.85"/>
    </edge>
    <edge id=":10_28" function="internal">
        <lane id=":10_28_0" index="0" speed="13.90" length="37.37" shape="3956.25,3464.82 3956.92,3463.62 3964.08,3461.37 3975.92,3461.24 3992.45,3463.26"/>
    </edge>
    <edge id=":11_0" function="internal">
        <lane id=":11_0_0" index="0" speed="13.90" length="5.04" shape="1583.75,3313.61 1582.37,3313.72 1581.37,3314.25 1580.75,3315.20 1580.51,3316.56"/>
    </edge>
    <edge id=":11_1" function="internal">
        <lane id=":11_1_0" index="0" speed="13.90" length="16.24" shape="1583.75,3313.61 1567.60,3312.93"/>
        <lane id=":11_1_1" index="1" speed="13.90" length="16.24" shape="1583.96,3310.32 1567.67,3309.63"/>
    </edge>
    <edge id=":11_3" function="internal">
        <lane id=":11_3_0" index="0" speed="13.90" length="6.33" shape="1583.96,3310.32 1579.68,3309.44 1578.04,3308.37"/>
    </edge>
    <edge id=":11_16" function="internal">
        <lane id=":11_16_0" index="0" speed="13.90" length="9.56" shape="1578.04,3308.37 1576.64,3307.44 1574.86,3304.32 1574.33,3300.06"/>
    </edge>
    <edge id=":11_4" function="internal">
        <lane id=":11_4_0" index="0" speed="13.90" length="5.58" shape="1580.93,3300.19 1581.12,3301.66 1581.76,3302.74 1582.85,3303.43 1584.38,3303.73"/>
    </edge>
    <edge id=":11_5" function="internal">
        <lane id=":11_5_0" index="0" speed="13.90" length="16.36" shape="1580.93,3300.19 1580.51,3316.56"/>
        <lane id=":11_5_1" index="1" speed="13.90" length="16.36" shape="1577.63,3300.13 1577.21,3316.46"/>
    </edge>
    <edge id=":11_7" function="internal">
        <lane id=":11_7_0" index="0" speed="13.90" length="6.47" shape="1577.63,3300.13 1576.94,3304.36 1575.77,3306.20"/>
    </edge>
    <edge id=":11_17" function="internal">
        <lane id=":11_17_0" index="0" speed="13.90" length="9.24" shape="1575.77,3306.20 1575.04,3307.36 1571.95,3309.11 1567.67,3309.63"/>
    </edge>
    <edge id=":11_8" function="internal">
        <lane id=":11_8_0" index="0" speed="13.90" length="5.05" shape="1567.81,3303.03 1569.20,3302.86 1570.20,3302.30 1570.81,3301.35 1571.03,3299.99"/>
    </edge>
    <edge id=":11_9" function="internal">
        <lane id=":11_9_0" index="0" speed="13.90" length="16.51" shape="1567.81,3303.03 1584.38,3303.73"/>
        <lane id=":11_9_1" index="1" speed="13.90" length="16.51" shape="1567.74,3306.33 1584.17,3307.03"/>
    </edge>
    <edge id=":11_11" function="internal">
        <lane id=":11_11_0" index="0" speed="13.90" length="6.64" shape="1567.74,3306.33 1572.00,3307.04 1573.95,3308.29"/>
    </edge>
    <edge id=":11_18" function="internal">
        <lane id=":11_18_0" index="0" speed="13.90" length="9.21" shape="1573.95,3308.29 1575.00,3308.96 1576.73,3312.10 1577.21,3316.46"/>
    </edge>
    <edge id=":11_12" function="internal">
        <lane id=":11_12_0" index="0" speed="13.90" length="5.13" shape="1570.61,3316.25 1570.46,3314.82 1569.91,3313.79 1568.96,3313.16 1567.60,3312.93"/>
    </edge>
    <edge id=":11_13" function="internal">
        <lane id=":11_13_0" index="0" speed="13.90" length="16.28" shape="1570.61,3316.25 1571.03,3299.99"/>
        <lane id=":11_13_1" index="1" speed="13.90" length="16.28" shape="1573.91,3316.36 1574.33,3300.06"/>
    </edge>
    <edge id=":11_15" function="internal">
        <lane id=":11_15_0" index="0" speed="13.90" length="6.38" shape="1573.91,3316.36 1574.67,3312.04 1575.77,3310.36"/>
    </edge>
    <edge id=":11_19" function="internal">
        <lane id=":11_19_0" index="0" speed="13.90" length="9.54" shape="1575.77,3310.36 1576.63,3309.04 1579.80,3307.37 1584.17,3307.03"/>
    </edge>
    <edge id=":12_0" function="internal">
        <lane id=":12_0_0" index="0" speed="25.00" length="18.21" shape="-7.13,3284.93 -7.75,3279.42 -8.07,3275.64 -8.15,3271.85 -8.04,3266.31"/>
        <lane id=":12_0_1" index="1" speed="25.00" length="18.21" shape="-3.85,3284.56 -4.46,3279.19 -4.77,3275.50 -4.84,3271.80 -4.74,3266.40"/>
        <lane id=":12_0_2" index="2" speed="25.00" length="18.21" shape="-0.58,3284.19 -1.16,3278.95 -1.47,3275.36 -1.54,3271.75 -1.44,3266.48"/>
    </edge>
    <edge id=":12_3" function="internal">
        <lane id=":12_3_0" index="0" speed="19.45" length="6.24" shape="-0.58,3284.19 -0.25,3279.28 0.48,3278.17"/>
    </edge>
    <edge id=":12_11" function="internal">
        <lane id=":12_11_0" index="0" speed="19.45" length="13.64" shape="0.48,3278.17 2.02,3275.82 6.22,3273.80 12.36,3273.23"/>
    </edge>
    <edge id=":12_4" function="internal">
        <lane id=":12_4_0" index="0" speed="19.45" length="5.17" shape="12.22,3279.83 10.78,3280.01 9.81,3280.61 9.31,3281.63 9.26,3283.07"/>
    </edge>
    <edge id=":12_5" function="internal">
        <lane id=":12_5_0" index="0" speed="19.45" length="20.68" shape="12.29,3276.53 4.74,3275.76 -0.61,3273.81 -3.77,3270.69 -4.74,3266.40"/>
        <lane id=":12_5_1" index="1" speed="19.45" length="20.68" shape="12.29,3276.53 6.19,3275.79 1.87,3273.87 -0.68,3270.77 -1.44,3266.48"/>
    </edge>
    <edge id=":12_7" function="internal">
        <lane id=":12_7_0" index="0" speed="19.45" length="5.79" shape="8.46,3266.74 8.67,3268.11 9.41,3269.09 10.66,3269.70 12.43,3269.93"/>
    </edge>
    <edge id=":12_8" function="internal">
        <lane id=":12_8_0" index="0" speed="25.00" length="16.83" shape="8.46,3266.74 8.36,3271.60 8.43,3274.92 8.72,3278.24 9.26,3283.07"/>
        <lane id=":12_8_1" index="1" speed="25.00" length="16.83" shape="5.16,3266.66 5.06,3271.65 5.13,3275.07 5.42,3278.48 5.98,3283.44"/>
        <lane id=":12_8_2" index="2" speed="25.00" length="16.83" shape="1.86,3266.57 1.76,3271.70 1.83,3275.21 2.13,3278.71 2.70,3283.81"/>
    </edge>
    <edge id=":13_0" function="internal">
        <lane id=":13_0_0" index="0" speed="19.45" length="9.53" shape="95.95,5.41 94.58,5.55 93.59,6.10 92.98,7.05 92.75,8.41"/>
        <lane id=":13_0_1" index="1" speed="19.45" length="9.53" shape="96.08,2.11 93.24,2.40 91.19,3.53 89.92,5.51 89.45,8.32"/>
        <lane id=":13_0_2" index="2" speed="19.45" length="9.53" shape="96.08,2.11 91.80,2.35 88.72,3.45 86.83,5.41 86.15,8.24"/>
    </edge>
    <edge id=":13_3" function="internal">
        <lane id=":13_3_0" index="0" speed="19.45" length="24.08" shape="76.25,7.98 77.64,2.23 81.45,-1.77 87.68,-4.00 96.35,-4.48"/>
        <lane id=":13_3_1" index="1" speed="19.45" length="24.08" shape="79.55,8.06 80.69,3.77 83.84,0.79 89.02,-0.86 96.21,-1.18"/>
    </edge>
    <edge id=":14_0" function="internal">
        <lane id=":14_0_0" index="0" speed="13.90" length="7.71" shape="1616.73,1677.26 1615.34,1677.43 1614.34,1677.99 1613.73,1678.95 1613.51,1680.30"/>
        <lane id=":14_0_1" index="1" speed="13.90" length="7.71" shape="1616.79,1673.96 1613.96,1674.31 1611.92,1675.47 1610.67,1677.45 1610.21,1680.23"/>
    </edge>
    <edge id=":14_2" function="internal">
        <lane id=":14_2_0" index="0" speed="13.90" length="15.71" shape="1616.79,1673.96 1612.53,1673.28 1609.53,1671.39 1607.78,1668.31 1607.27,1664.03"/>
    </edge>
    <edge id=":14_3" function="internal">
        <lane id=":14_3_0" index="0" speed="13.90" length="5.01" shape="1613.87,1664.20 1614.03,1665.56 1614.59,1666.54 1615.55,1667.14 1616.90,1667.36"/>
    </edge>
    <edge id=":14_4" function="internal">
        <lane id=":14_4_0" index="0" speed="13.90" length="16.12" shape="1613.87,1664.20 1613.51,1680.30"/>
        <lane id=":14_4_1" index="1" speed="13.90" length="16.12" shape="1610.57,1664.11 1610.21,1680.23"/>
    </edge>
    <edge id=":14_6" function="internal">
        <lane id=":14_6_0" index="0" speed="13.90" length="16.15" shape="1603.61,1680.10 1603.97,1663.95"/>
        <lane id=":14_6_1" index="1" speed="13.90" length="16.15" shape="1606.91,1680.17 1607.27,1664.03"/>
    </edge>
    <edge id=":14_8" function="internal">
        <lane id=":14_8_0" index="0" speed="13.90" length="6.42" shape="1606.91,1680.17 1607.60,1675.95 1608.75,1674.13"/>
    </edge>
    <edge id=":14_9" function="internal">
        <lane id=":14_9_0" index="0" speed="13.90" length="9.25" shape="1608.75,1674.13 1609.49,1672.95 1612.57,1671.19 1616.85,1670.66"/>
    </edge>
    <edge id=":15_0" function="internal">
        <lane id=":15_0_0" index="0" speed="13.90" length="5.03" shape="4029.61,1719.97 4028.23,1720.08 4027.23,1720.61 4026.61,1721.55 4026.36,1722.91"/>
    </edge>
    <edge id=":15_1" function="internal">
        <lane id=":15_1_0" index="0" speed="13.90" length="16.25" shape="4029.61,1719.97 4013.45,1719.31"/>
        <lane id=":15_1_1" index="1" speed="13.90" length="16.25" shape="4029.83,1716.68 4013.51,1716.01"/>
    </edge>
    <edge id=":15_3" function="internal">
        <lane id=":15_3_0" index="0" speed="13.90" length="6.29" shape="4029.83,1716.68 4025.56,1715.80 4023.94,1714.74"/>
    </edge>
    <edge id=":15_16" function="internal">
        <lane id=":15_16_0" index="0" speed="13.90" length="9.51" shape="4023.94,1714.74 4022.54,1713.81 4020.79,1710.70 4020.29,1706.47"/>
    </edge>
    <edge id=":15_4" function="internal">
        <lane id=":15_4_0" index="0" speed="13.90" length="5.45" shape="4026.88,1706.65 4027.06,1708.07 4027.68,1709.12 4028.75,1709.79 4030.26,1710.09"/>
    </edge>
    <edge id=":15_5" function="internal">
        <lane id=":15_5_0" index="0" speed="13.90" length="16.25" shape="4026.88,1706.65 4026.36,1722.91"/>
        <lane id=":15_5_1" index="1" speed="13.90" length="16.25" shape="4023.59,1706.56 4023.06,1722.79"/>
    </edge>
    <edge id=":15_7" function="internal">
        <lane id=":15_7_0" index="0" speed="13.90" length="6.41" shape="4023.59,1706.56 4022.86,1710.76 4021.69,1712.56"/>
    </edge>
    <edge id=":15_17" function="internal">
        <lane id=":15_17_0" index="0" speed="13.90" length="9.30" shape="4021.69,1712.56 4020.94,1713.73 4017.82,1715.48 4013.51,1716.01"/>
    </edge>
    <edge id=":15_8" function="internal">
        <lane id=":15_8_0" index="0" speed="13.90" length="5.15" shape="4013.63,1709.41 4015.07,1709.24 4016.11,1708.68 4016.75,1707.73 4016.99,1706.38"/>
    </edge>
    <edge id=":15_9" function="internal">
        <lane id=":15_9_0" index="0" speed="13.90" length="16.57" shape="4013.63,1709.41 4030.26,1710.09"/>
        <lane id=":15_9_1" index="1" speed="13.90" length="16.57" shape="4013.57,1712.71 4030.04,1713.39"/>
    </edge>
    <edge id=":15_11" function="internal">
        <lane id=":15_11_0" index="0" speed="13.90" length="6.71" shape="4013.57,1712.71 4017.86,1713.40 4019.85,1714.67"/>
    </edge>
    <edge id=":15_18" function="internal">
        <lane id=":15_18_0" index="0" speed="13.90" length="9.15" shape="4019.85,1714.67 4020.87,1715.31 4022.61,1718.44 4023.06,1722.79"/>
    </edge>
    <edge id=":15_12" function="internal">
        <lane id=":15_12_0" index="0" speed="13.90" length="5.06" shape="4016.47,1722.54 4016.32,1721.15 4015.77,1720.14 4014.82,1719.53 4013.45,1719.31"/>
    </edge>
    <edge id=":15_13" function="internal">
        <lane id=":15_13_0" index="0" speed="13.90" length="16.19" shape="4016.47,1722.54 4016.99,1706.38"/>
        <lane id=":15_13_1" index="1" speed="13.90" length="16.19" shape="4019.76,1722.66 4020.29,1706.47"/>
    </edge>
    <edge id=":15_15" function="internal">
        <lane id=":15_15_0" index="0" speed="13.90" length="6.38" shape="4019.76,1722.66 4020.54,1718.36 4021.66,1716.68"/>
    </edge>
    <edge id=":15_19" function="internal">
        <lane id=":15_19_0" index="0" speed="13.90" length="9.50" shape="4021.66,1716.68 4022.52,1715.38 4025.68,1713.73 4030.04,1713.39"/>
    </edge>
    <edge id=":16_0" function="internal">
        <lane id=":16_0_0" index="0" speed="13.90" length="4.99" shape="5595.88,3730.53 5594.52,3730.68 5593.53,3731.23 5592.91,3732.18 5592.66,3733.52"/>
    </edge>
    <edge id=":16_1" function="internal">
        <lane id=":16_1_0" index="0" speed="13.90" length="17.60" shape="5595.88,3730.53 5590.59,3730.34 5586.98,3730.07 5583.40,3729.59 5578.18,3728.74"/>
        <lane id=":16_1_1" index="1" speed="13.90" length="17.60" shape="5595.98,3727.23 5590.82,3727.05 5587.30,3726.78 5583.80,3726.31 5578.71,3725.49"/>
    </edge>
    <edge id=":16_3" function="internal">
        <lane id=":16_3_0" index="0" speed="13.90" length="6.23" shape="5595.98,3727.23 5591.79,3726.43 5590.18,3725.29"/>
    </edge>
    <edge id=":16_16" function="internal">
        <lane id=":16_16_0" index="0" speed="13.90" length="10.35" shape="5590.18,3725.29 5588.80,3724.31 5587.01,3720.88 5586.41,3716.13"/>
    </edge>
    <edge id=":16_4" function="internal">
        <lane id=":16_4_0" index="0" speed="13.90" length="6.19" shape="5593.01,3716.13 5593.21,3718.07 5593.80,3719.46 5594.79,3720.32 5596.18,3720.64"/>
    </edge>
    <edge id=":16_5" function="internal">
        <lane id=":16_5_0" index="0" speed="13.90" length="17.31" shape="5593.01,3716.13 5592.66,3733.52"/>
        <lane id=":16_5_1" index="1" speed="13.90" length="17.31" shape="5589.71,3716.13 5589.37,3733.37"/>
    </edge>
    <edge id=":16_7" function="internal">
        <lane id=":16_7_0" index="0" speed="13.90" length="6.90" shape="5589.71,3716.13 5589.02,3720.90 5587.88,3722.64"/>
    </edge>
    <edge id=":16_17" function="internal">
        <lane id=":16_17_0" index="0" speed="13.90" length="10.26" shape="5587.88,3722.64 5586.96,3724.05 5583.52,3725.57 5578.71,3725.49"/>
    </edge>
    <edge id=":16_8" function="internal">
        <lane id=":16_8_0" index="0" speed="13.90" length="5.20" shape="5579.77,3718.97 5581.23,3719.00 5582.28,3718.53 5582.90,3717.58 5583.11,3716.13"/>
    </edge>
    <edge id=":16_9" function="internal">
        <lane id=":16_9_0" index="0" speed="13.90" length="16.73" shape="5579.77,3718.97 5584.61,3719.76 5587.94,3720.21 5591.28,3720.46 5596.18,3720.64"/>
        <lane id=":16_9_1" index="1" speed="13.90" length="16.73" shape="5579.24,3722.23 5584.21,3723.03 5587.62,3723.50 5591.05,3723.75 5596.08,3723.94"/>
    </edge>
    <edge id=":16_11" function="internal">
        <lane id=":16_11_0" index="0" speed="13.90" length="7.16" shape="5579.24,3722.23 5583.82,3723.57 5585.76,3724.96"/>
    </edge>
    <edge id=":16_18" function="internal">
        <lane id=":16_18_0" index="0" speed="13.90" length="9.58" shape="5585.76,3724.96 5587.04,3725.87 5588.89,3729.14 5589.37,3733.37"/>
    </edge>
    <edge id=":16_12" function="internal">
        <lane id=":16_12_0" index="0" speed="13.90" length="7.01" shape="5582.77,3733.09 5582.54,3731.48 5581.70,3730.22 5580.25,3729.30 5578.18,3728.74"/>
    </edge>
    <edge id=":16_13" function="internal">
        <lane id=":16_13_0" index="0" speed="13.90" length="17.03" shape="5582.77,3733.09 5583.11,3716.13"/>
        <lane id=":16_13_1" index="1" speed="13.90" length="17.03" shape="5586.07,3733.23 5586.41,3716.13"/>
    </edge>
    <edge id=":16_15" function="internal">
        <lane id=":16_15_0" index="0" speed="13.90" length="6.14" shape="5586.07,3733.23 5586.85,3729.05 5587.88,3727.48"/>
    </edge>
    <edge id=":16_19" function="internal">
        <lane id=":16_19_0" index="0" speed="13.90" length="9.40" shape="5587.88,3727.48 5588.78,3726.11 5591.85,3724.41 5596.08,3723.94"/>
    </edge>
    <edge id=":17_0" function="internal">
        <lane id=":17_0_0" index="0" speed="13.90" length="5.27" shape="5583.11,3121.10 5582.90,3119.63 5582.26,3118.68 5581.20,3118.25 5579.71,3118.35"/>
    </edge>
    <edge id=":17_1" function="internal">
        <lane id=":17_1_0" index="0" speed="13.90" length="16.29" shape="5583.11,3121.10 5583.44,3104.73"/>
        <lane id=":17_1_1" index="1" speed="13.90" length="16.29" shape="5586.41,3121.10 5586.73,3104.90"/>
    </edge>
    <edge id=":17_3" function="internal">
        <lane id=":17_3_0" index="0" speed="13.90" length="15.97" shape="5593.33,3105.22 5593.01,3121.10"/>
        <lane id=":17_3_1" index="1" speed="13.90" length="15.97" shape="5590.03,3105.06 5589.71,3121.10"/>
    </edge>
    <edge id=":17_5" function="internal">
        <lane id=":17_5_0" index="0" speed="13.90" length="5.27" shape="5590.03,3105.06 5589.20,3108.61 5588.23,3109.92"/>
    </edge>
    <edge id=":17_9" function="internal">
        <lane id=":17_9_0" index="0" speed="13.90" length="10.86" shape="5588.23,3109.92 5587.09,3111.47 5583.69,3113.64 5579.02,3115.12"/>
    </edge>
    <edge id=":17_6" function="internal">
        <lane id=":17_6_0" index="0" speed="13.90" length="9.62" shape="5577.65,3108.67 5580.13,3107.97 5581.92,3107.08 5583.03,3106.00 5583.44,3104.73"/>
        <lane id=":17_6_1" index="1" speed="13.90" length="9.62" shape="5578.33,3111.89 5581.91,3110.81 5584.50,3109.28 5586.11,3107.31 5586.73,3104.90"/>
    </edge>
    <edge id=":17_8" function="internal">
        <lane id=":17_8_0" index="0" speed="13.90" length="17.63" shape="5578.33,3111.89 5583.31,3111.56 5586.87,3112.98 5589.00,3116.17 5589.71,3121.10"/>
    </edge>
    <edge id=":18_0" function="internal">
        <lane id=":18_0_0" index="0" speed="25.00" length="22.14" shape="6967.14,3752.92 6969.65,3759.38 6971.17,3763.92 6971.93,3768.61 6972.11,3775.49"/>
        <lane id=":18_0_1" index="1" speed="25.00" length="22.14" shape="6964.06,3754.08 6966.44,3760.21 6967.90,3764.51 6968.63,3768.95 6968.81,3775.47"/>
        <lane id=":18_0_2" index="2" speed="25.00" length="22.14" shape="6960.97,3755.25 6963.23,3761.04 6964.62,3765.11 6965.33,3769.30 6965.51,3775.46"/>
    </edge>
    <edge id=":18_3" function="internal">
        <lane id=":18_3_0" index="0" speed="19.45" length="7.28" shape="6960.97,3755.25 6962.22,3761.40 6961.88,3762.35"/>
    </edge>
    <edge id=":18_11" function="internal">
        <lane id=":18_11_0" index="0" speed="19.45" length="15.93" shape="6961.88,3762.35 6960.64,3765.73 6956.23,3768.21 6948.99,3768.86"/>
    </edge>
    <edge id=":18_4" function="internal">
        <lane id=":18_4_0" index="0" speed="19.45" length="5.56" shape="6949.19,3762.27 6950.80,3762.09 6951.76,3761.44 6952.06,3760.33 6951.71,3758.74"/>
    </edge>
    <edge id=":18_5" function="internal">
        <lane id=":18_5_0" index="0" speed="19.45" length="22.76" shape="6949.09,3765.56 6957.73,3766.41 6963.90,3768.35 6967.59,3771.37 6968.81,3775.47"/>
        <lane id=":18_5_1" index="1" speed="19.45" length="22.76" shape="6949.09,3765.56 6956.29,3766.37 6961.42,3768.29 6964.50,3771.32 6965.51,3775.46"/>
    </edge>
    <edge id=":18_7" function="internal">
        <lane id=":18_7_0" index="0" speed="19.45" length="8.18" shape="6955.61,3775.43 6955.20,3774.07 6953.94,3773.08 6951.83,3772.44 6948.88,3772.16"/>
    </edge>
    <edge id=":18_8" function="internal">
        <lane id=":18_8_0" index="0" speed="25.00" length="18.52" shape="6955.61,3775.43 6955.44,3770.33 6954.80,3766.88 6953.60,3763.53 6951.71,3758.74"/>
        <lane id=":18_8_1" index="1" speed="25.00" length="18.52" shape="6958.91,3775.44 6958.74,3769.99 6958.08,3766.29 6956.81,3762.70 6954.79,3757.58"/>
        <lane id=":18_8_2" index="2" speed="25.00" length="18.52" shape="6962.21,3775.45 6962.03,3769.64 6961.35,3765.70 6960.02,3761.87 6957.88,3756.41"/>
    </edge>
    <edge id=":19_0" function="internal">
        <lane id=":19_0_0" index="0" speed="13.90" length="16.73" shape="5656.40,1811.69 5656.11,1828.52"/>
        <lane id=":19_0_1" index="1" speed="13.90" length="16.73" shape="5653.10,1811.74 5652.82,1828.36"/>
    </edge>
    <edge id=":19_2" function="internal">
        <lane id=":19_2_0" index="0" speed="13.90" length="6.88" shape="5653.10,1811.74 5652.51,1816.23 5651.29,1818.23"/>
    </edge>
    <edge id=":19_8" function="internal">
        <lane id=":19_8_0" index="0" speed="13.90" length="9.48" shape="5651.29,1818.23 5650.61,1819.34 5647.41,1821.08 5642.89,1821.43"/>
    </edge>
    <edge id=":19_3" function="internal">
        <lane id=":19_3_0" index="0" speed="13.90" length="5.10" shape="5643.32,1814.84 5644.72,1814.73 5645.72,1814.19 5646.31,1813.22 5646.50,1811.82"/>
    </edge>
    <edge id=":19_4" function="internal">
        <lane id=":19_4_0" index="0" speed="13.90" length="16.02" shape="5643.10,1818.14 5647.53,1819.02 5650.62,1821.02 5652.39,1824.14 5652.82,1828.36"/>
    </edge>
    <edge id=":19_5" function="internal">
        <lane id=":19_5_0" index="0" speed="13.90" length="5.50" shape="5646.23,1828.04 5646.06,1826.68 5645.41,1825.67 5644.28,1825.02 5642.67,1824.72"/>
    </edge>
    <edge id=":19_6" function="internal">
        <lane id=":19_6_0" index="0" speed="13.90" length="16.32" shape="5646.23,1828.04 5646.50,1811.82"/>
        <lane id=":19_6_1" index="1" speed="13.90" length="16.32" shape="5649.52,1828.20 5649.80,1811.78"/>
    </edge>
    <edge id=":2_0" function="internal">
        <lane id=":2_0_0" index="0" speed="19.45" length="19.97" shape="5415.35,10268.72 5414.43,10276.65 5412.34,10282.49 5409.06,10286.25 5404.62,10287.94"/>
        <lane id=":2_0_1" index="1" speed="19.45" length="19.97" shape="5412.06,10268.60 5411.35,10275.28 5409.81,10280.18 5407.42,10283.31 5404.20,10284.67"/>
        <lane id=":2_0_2" index="2" speed="19.45" length="19.97" shape="5412.06,10268.60 5411.37,10273.82 5409.77,10277.69 5407.23,10280.22 5403.78,10281.39"/>
    </edge>
    <edge id=":2_3" function="internal">
        <lane id=":2_3_0" index="0" speed="19.45" length="7.16" shape="5402.52,10271.57 5403.77,10271.24 5404.67,10270.59 5405.24,10269.63 5405.46,10268.36"/>
        <lane id=":2_3_1" index="1" speed="19.45" length="7.16" shape="5402.94,10274.85 5405.41,10274.18 5407.20,10272.90 5408.32,10271.00 5408.76,10268.48"/>
    </edge>
    <edge id=":20_0" function="internal">
        <lane id=":20_0_0" index="0" speed="13.90" length="45.62" shape="5626.09,281.41 5624.67,263.98 5620.95,252.71 5614.93,247.62 5606.62,248.70"/>
    </edge>
    <edge id=":20_1" function="internal">
        <lane id=":20_1_0" index="0" speed="13.90" length="59.03" shape="5626.09,281.41 5624.36,262.09 5619.76,248.05 5612.30,239.31 5601.97,235.87"/>
        <lane id=":20_1_1" index="1" speed="13.90" length="59.03" shape="5629.39,281.37 5627.45,260.70 5622.27,245.67 5613.85,236.30 5602.19,232.58"/>
    </edge>
    <edge id=":20_3" function="internal">
        <lane id=":20_3_0" index="0" speed="19.45" length="17.91" shape="5629.39,281.37 5630.14,263.48"/>
    </edge>
    <edge id=":20_16" function="internal">
        <lane id=":20_16_0" index="0" speed="19.45" length="43.16" shape="5630.14,263.48 5630.31,259.38 5633.87,251.34 5640.05,257.25 5648.86,277.10"/>
    </edge>
    <edge id=":20_4" function="internal">