<?xml version="1.0" encoding="UTF-8"?>

<!-- generated on 2/15/2017 4:14:02 PM by Netedit Version 0.27.1
<?xml version="1.0" encoding="UTF-8"?>

<configuration xmlns:xsi="http://www.w3.org/2001/XMLSchema-instance" xsi:noNamespaceSchemaLocation="http://sumo.dlr.de/xsd/netedit.exeConfiguration.xsd">

    <input>
        <sumo-net-file value="C:\Users\Shekar\Documents\GitHub\sumo_sim\sf_enriched\SF_sumo.net.xml"/>
    </input>

    <output>
        <output-file value="C:\Users\Shekar\Documents\GitHub\sumo_sim\sf_enriched\SF_with_TLS.net.xml"/>
    </output>

    <processing>
        <no-turnarounds value="true"/>
        <offset.disable-normalization value="true"/>
        <lefthand value="false"/>
        <junctions.corner-detail value="0"/>
    </processing>

</configuration>
-->

<net version="0.27" xmlns:xsi="http://www.w3.org/2001/XMLSchema-instance" xsi:noNamespaceSchemaLocation="http://sumo.dlr.de/xsd/net_file.xsd">

    <location netOffset="-679322.03,-4820339.81" convBoundary="0.00,0.00,6963.89,10896.37" origBoundary="679322.03,4820339.81,686285.93,4831236.18" projParameter="!"/>

    <edge id=":1_0" function="internal">
        <lane id=":1_0_0" index="0" speed="25.00" length="25.22" shape="598.96,10903.20 590.41,10903.07 584.17,10900.18 580.23,10894.55 578.58,10886.16"/>
        <lane id=":1_0_1" index="1" speed="25.00" length="25.22" shape="598.54,10899.93 591.55,10899.82 586.45,10897.46 583.22,10892.85 581.88,10886.00"/>
        <lane id=":1_0_2" index="2" speed="25.00" length="25.22" shape="598.12,10896.66 592.69,10896.57 588.72,10894.74 586.22,10891.16 585.17,10885.83"/>
    </edge>
    <edge id=":1_3" function="internal">
        <lane id=":1_3_0" index="0" speed="25.00" length="2.69" shape="598.12,10896.66 596.79,10895.99 596.27,10895.23 596.37,10894.96"/>
    </edge>
    <edge id=":1_8" function="internal">
        <lane id=":1_8_0" index="0" speed="25.00" length="2.13" shape="596.37,10894.96 596.58,10894.36 597.70,10893.38"/>
    </edge>
    <edge id=":1_4" function="internal">
        <lane id=":1_4_0" index="0" speed="25.00" length="8.35" shape="595.06,10885.33 595.21,10886.07 595.56,10886.57 596.11,10886.82 596.86,10886.84"/>
        <lane id=":1_4_1" index="1" speed="25.00" length="8.35" shape="591.77,10885.50 592.21,10887.77 593.28,10889.29 594.97,10890.07 597.28,10890.11"/>
        <lane id=":1_4_2" index="2" speed="25.00" length="8.35" shape="588.47,10885.66 589.21,10889.46 591.00,10892.01 593.83,10893.32 597.70,10893.38"/>
    </edge>
    <edge id=":1_7" function="internal">
        <lane id=":1_7_0" index="0" speed="25.00" length="2.20" shape="588.47,10885.66 587.71,10886.94 587.09,10887.29"/>
    </edge>
    <edge id=":1_9" function="internal">
        <lane id=":1_9_0" index="0" speed="25.00" length="2.62" shape="587.09,10887.29 586.91,10887.39 586.06,10887.02 585.17,10885.83"/>
    </edge>
    <edge id=":10_0" function="internal">
        <lane id=":10_0_0" index="0" speed="13.90" length="30.84" shape="3991.38,3469.77 3978.14,3467.82 3968.67,3466.90 3962.97,3467.02 3961.05,3468.17"/>
    </edge>
    <edge id=":10_1" function="internal">
        <lane id=":10_1_0" index="0" speed="13.90" length="44.21" shape="3991.38,3469.77 3947.79,3463.45"/>
        <lane id=":10_1_1" index="1" speed="13.90" length="44.21" shape="3991.92,3466.51 3948.00,3460.16"/>
    </edge>
    <edge id=":10_3" function="internal">
        <lane id=":10_3_0" index="0" speed="13.90" length="42.98" shape="3991.92,3466.51 3975.62,3463.14 3964.04,3459.11 3957.18,3454.42 3955.03,3449.07"/>
    </edge>
    <edge id=":10_4" function="internal">
        <lane id=":10_4_0" index="0" speed="13.90" length="48.16" shape="3991.92,3466.51 3975.19,3462.75 3969.55,3458.71 3974.99,3454.41 3991.52,3449.85"/>
    </edge>
    <edge id=":10_5" function="internal">
        <lane id=":10_5_0" index="0" speed="13.90" length="2.41" shape="3991.92,3466.51 3990.83,3465.50 3990.55,3464.62"/>
    </edge>
    <edge id=":10_30" function="internal">
        <lane id=":10_30_0" index="0" speed="13.90" length="2.41" shape="3990.55,3464.62 3991.09,3463.87 3992.45,3463.26"/>
    </edge>
    <edge id=":10_6" function="internal">
        <lane id=":10_6_0" index="0" speed="13.90" length="10.69" shape="3992.89,3456.30 3989.22,3457.31 3988.02,3458.27 3989.27,3459.16 3992.98,3460.00"/>
    </edge>
    <edge id=":10_7" function="internal">
        <lane id=":10_7_0" index="0" speed="13.90" length="34.65" shape="3992.89,3456.30 3979.00,3459.58 3969.07,3462.65 3963.08,3465.51 3961.05,3468.17"/>
    </edge>
    <edge id=":10_8" function="internal">
        <lane id=":10_8_0" index="0" speed="13.90" length="45.21" shape="3992.89,3456.30 3947.79,3463.45"/>
        <lane id=":10_8_1" index="1" speed="13.90" length="45.21" shape="3992.20,3453.07 3948.00,3460.16"/>
    </edge>
    <edge id=":10_10" function="internal">
        <lane id=":10_10_0" index="0" speed="13.90" length="31.66" shape="3992.20,3453.07 3975.77,3455.83 3964.10,3456.08 3960.93,3455.05"/>
    </edge>
    <edge id=":10_11" function="internal">
        <lane id=":10_11_0" index="0" speed="13.90" length="4.82" shape="3992.20,3453.07 3990.82,3452.52 3990.25,3451.80 3990.48,3450.91 3991.52,3449.85"/>
    </edge>
    <edge id=":10_31" function="internal">
        <lane id=":10_31_0" index="0" speed="13.90" length="9.16" shape="3960.93,3455.05 3957.19,3453.82 3955.03,3449.07"/>
    </edge>
    <edge id=":10_12" function="internal">
        <lane id=":10_12_0" index="0" speed="13.90" length="29.88" shape="3961.63,3449.31 3963.40,3450.48 3968.86,3450.42 3978.00,3449.13 3990.83,3446.62"/>
    </edge>
    <edge id=":10_13" function="internal">
        <lane id=":10_13_0" index="0" speed="13.90" length="33.98" shape="3961.63,3449.31 3963.51,3452.06 3969.36,3454.75 3979.19,3457.40 3992.98,3460.00"/>
    </edge>
    <edge id=":10_14" function="internal">
        <lane id=":10_14_0" index="0" speed="13.90" length="18.89" shape="3961.63,3449.31 3961.05,3468.17"/>
        <lane id=":10_14_1" index="1" speed="13.90" length="18.89" shape="3958.33,3449.19 3957.75,3468.09"/>
    </edge>
    <edge id=":10_16" function="internal">
        <lane id=":10_16_0" index="0" speed="13.90" length="7.34" shape="3958.33,3449.19 3957.52,3454.22 3956.42,3456.17"/>
    </edge>
    <edge id=":10_17" function="internal">
        <lane id=":10_17_0" index="0" speed="13.90" length="2.41" shape="3958.33,3449.19 3957.46,3450.40 3956.62,3450.78"/>
    </edge>
    <edge id=":10_32" function="internal">
        <lane id=":10_32_0" index="0" speed="13.90" length="9.91" shape="3956.42,3456.17 3955.53,3457.73 3952.36,3459.71 3948.00,3460.16"/>
    </edge>
    <edge id=":10_33" function="internal">
        <lane id=":10_33_0" index="0" speed="13.90" length="2.41" shape="3956.62,3450.78 3955.81,3450.33 3955.03,3449.07"/>
    </edge>
    <edge id=":10_18" function="internal">
        <lane id=":10_18_0" index="0" speed="13.90" length="6.44" shape="3948.42,3453.57 3949.80,3453.36 3950.82,3452.51 3951.46,3451.04 3951.73,3448.94"/>
    </edge>
    <edge id=":10_19" function="internal">
        <lane id=":10_19_0" index="0" speed="13.90" length="43.50" shape="3948.42,3453.57 3957.88,3453.04 3969.70,3451.11 3981.48,3448.67 3990.83,3446.62"/>
        <lane id=":10_19_1" index="1" speed="13.90" length="43.50" shape="3948.21,3456.86 3957.81,3456.33 3969.94,3454.37 3982.03,3451.91 3991.52,3449.85"/>
    </edge>
    <edge id=":10_21" function="internal">
        <lane id=":10_21_0" index="0" speed="13.90" length="44.70" shape="3948.21,3456.86 3992.45,3463.26"/>
    </edge>
    <edge id=":10_22" function="internal">
        <lane id=":10_22_0" index="0" speed="13.90" length="16.65" shape="3948.21,3456.86 3952.48,3457.80 3955.49,3459.98 3957.25,3463.41 3957.75,3468.09"/>
    </edge>
    <edge id=":10_23" function="internal">
        <lane id=":10_23_0" index="0" speed="13.90" length="2.41" shape="3948.21,3456.86 3949.39,3457.76 3949.75,3458.61"/>
    </edge>
    <edge id=":10_34" function="internal">
        <lane id=":10_34_0" index="0" speed="13.90" length="2.41" shape="3949.75,3458.61 3949.29,3459.41 3948.00,3460.16"/>
    </edge>
    <edge id=":10_24" function="internal">
        <lane id=":10_24_0" index="0" speed="13.90" length="6.32" shape="3951.15,3467.94 3950.98,3466.06 3950.36,3464.68 3949.30,3463.81 3947.79,3463.45"/>
    </edge>
    <edge id=":10_25" function="internal">
        <lane id=":10_25_0" index="0" speed="13.90" length="18.98" shape="3951.15,3467.94 3951.73,3448.94"/>
        <lane id=":10_25_1" index="1" speed="13.90" length="18.98" shape="3954.45,3468.02 3955.03,3449.07"/>
    </edge>
    <edge id=":10_27" function="internal">
        <lane id=":10_27_0" index="0" speed="13.90" length="4.19" shape="3954.45,3468.02 3956.27,3464.23"/>
    </edge>
    <edge id=":10_28" function="internal">
        <lane id=":10_28_0" index="0" speed="13.90" length="3.67" shape="3954.45,3468.02 3956.25,3464.82"/>
    </edge>
    <edge id=":10_29" function="internal">
        <lane id=":10_29_0" index="0" speed="13.90" length="2.41" shape="3954.45,3468.02 3955.30,3466.80 3956.14,3466.40"/>
    </edge>
    <edge id=":10_35" function="internal">
        <lane id=":10_35_0" index="0" speed="13.90" length="38.77" shape="3956.27,3464.23 3956.86,3463.01 3963.84,3458.31 3975.39,3453.92 3991.52,3449.85"/>
    </edge>
    <edge id=":10_36" function="internal">
        <lane id=":10_36_0" index="0" speed="13.90" length="37.37" shape="3956.25,3464.82 3956.92,3463.62 3964.08,3461.37 3975.92,3461.24 3992.45,3463.26"/>
    </edge>
    <edge id=":10_37" function="internal">
        <lane id=":10_37_0" index="0" speed="13.90" length="2.41" shape="3956.14,3466.40 3956.95,3466.84 3957.75,3468.09"/>
    </edge>
    <edge id=":10_261_0" function="internal">
        <lane id=":10_261_0_0" index="0" speed="13.90" length="0.10" shape="3952.88,3819.57 3952.88,3819.57"/>
        <lane id=":10_261_0_1" index="1" speed="13.90" length="0.10" shape="3949.58,3819.49 3949.58,3819.49"/>
    </edge>
    <edge id=":10_271_0" function="internal">
        <lane id=":10_271_0_0" index="0" speed="13.90" length="0.10" shape="3479.90,3433.79 3479.90,3433.79"/>
        <lane id=":10_271_0_1" index="1" speed="13.90" length="0.10" shape="3480.11,3430.50 3480.11,3430.50"/>
    </edge>
    <edge id=":10_272_0" function="internal">
        <lane id=":10_272_0_0" index="0" speed="13.90" length="0.10" shape="3003.80,3403.62 3003.80,3403.62"/>
        <lane id=":10_272_0_1" index="1" speed="13.90" length="0.10" shape="3004.01,3400.33 3004.01,3400.33"/>
    </edge>
    <edge id=":10_273_0" function="internal">
        <lane id=":10_273_0_0" index="0" speed="13.90" length="0.10" shape="2527.71,3373.44 2527.71,3373.44"/>
        <lane id=":10_273_0_1" index="1" speed="13.90" length="0.10" shape="2527.92,3370.15 2527.92,3370.15"/>
    </edge>
    <edge id=":10_274_0" function="internal">
        <lane id=":10_274_0_0" index="0" speed="13.90" length="0.10" shape="2051.61,3343.27 2051.61,3343.27"/>
        <lane id=":10_274_0_1" index="1" speed="13.90" length="0.10" shape="2051.82,3339.98 2051.82,3339.98"/>
    </edge>
    <edge id=":10_281_0" function="internal">
        <lane id=":10_281_0_0" index="0" speed="13.90" length="0.10" shape="3967.71,3022.71 3967.71,3022.71"/>
        <lane id=":10_281_0_1" index="1" speed="13.90" length="0.10" shape="3971.01,3022.84 3971.01,3022.84"/>
    </edge>
    <edge id=":10_282_0" function="internal">
        <lane id=":10_282_0_0" index="0" speed="13.90" length="0.10" shape="3984.07,2586.57 3984.07,2586.57"/>
        <lane id=":10_282_0_1" index="1" speed="13.90" length="0.10" shape="3987.37,2586.70 3987.37,2586.70"/>
    </edge>
    <edge id=":10_283_0" function="internal">
        <lane id=":10_283_0_0" index="0" speed="13.90" length="0.10" shape="4000.42,2150.44 4000.42,2150.44"/>
        <lane id=":10_283_0_1" index="1" speed="13.90" length="0.10" shape="4003.72,2150.57 4003.72,2150.57"/>
    </edge>
    <edge id=":10_291_0" function="internal">
        <lane id=":10_291_0_0" index="0" speed="13.90" length="0.10" shape="4365.05,3520.71 4365.05,3520.71"/>
        <lane id=":10_291_0_1" index="1" speed="13.90" length="0.10" shape="4364.52,3523.97 4364.52,3523.97"/>
    </edge>
    <edge id=":10_292_0" function="internal">
        <lane id=":10_292_0_0" index="0" speed="13.90" length="0.10" shape="4772.99,3587.29 4772.99,3587.29"/>
        <lane id=":10_292_0_1" index="1" speed="13.90" length="0.10" shape="4772.46,3590.55 4772.46,3590.55"/>
    </edge>
    <edge id=":10_293_0" function="internal">
        <lane id=":10_293_0_0" index="0" speed="13.90" length="0.10" shape="5180.92,3653.87 5180.92,3653.87"/>
        <lane id=":10_293_0_1" index="1" speed="13.90" length="0.10" shape="5180.39,3657.13 5180.39,3657.13"/>
    </edge>
    <edge id=":10_301_0" function="internal">
        <lane id=":10_301_0_0" index="0" speed="13.90" length="0.10" shape="4363.22,3367.31 4363.22,3367.31"/>
        <lane id=":10_301_0_1" index="1" speed="13.90" length="0.10" shape="4363.91,3370.54 4363.91,3370.54"/>
    </edge>
    <edge id=":10_302_0" function="internal">
        <lane id=":10_302_0_0" index="0" speed="13.90" length="0.10" shape="4771.16,3280.43 4771.16,3280.43"/>
        <lane id=":10_302_0_1" index="1" speed="13.90" length="0.10" shape="4771.85,3283.66 4771.85,3283.66"/>
    </edge>
    <edge id=":10_303_0" function="internal">
        <lane id=":10_303_0_0" index="0" speed="13.90" length="0.10" shape="5179.09,3193.55 5179.09,3193.55"/>
        <lane id=":10_303_0_1" index="1" speed="13.90" length="0.10" shape="5179.78,3196.78 5179.78,3196.78"/>
    </edge>
    <edge id=":11_0" function="internal">
        <lane id=":11_0_0" index="0" speed="13.90" length="5.04" shape="1583.75,3313.61 1582.37,3313.72 1581.37,3314.25 1580.75,3315.20 1580.51,3316.56"/>
    </edge>
    <edge id=":11_1" function="internal">
        <lane id=":11_1_0" index="0" speed="13.90" length="16.24" shape="1583.75,3313.61 1567.60,3312.93"/>
        <lane id=":11_1_1" index="1" speed="13.90" length="16.24" shape="1583.96,3310.32 1567.67,3309.63"/>
    </edge>
    <edge id=":11_3" function="internal">
        <lane id=":11_3_0" index="0" speed="13.90" length="6.33" shape="1583.96,3310.32 1579.68,3309.44 1578.04,3308.37"/>
    </edge>
    <edge id=":11_4" function="internal">
        <lane id=":11_4_0" index="0" speed="13.90" length="2.41" shape="1583.96,3310.32 1582.78,3309.42 1582.42,3308.57"/>
    </edge>
    <edge id=":11_20" function="internal">
        <lane id=":11_20_0" index="0" speed="13.90" length="9.56" shape="1578.04,3308.37 1576.64,3307.44 1574.86,3304.32 1574.33,3300.06"/>
    </edge>
    <edge id=":11_21" function="internal">
        <lane id=":11_21_0" index="0" speed="13.90" length="2.41" shape="1582.42,3308.57 1582.88,3307.77 1584.17,3307.03"/>
    </edge>
    <edge id=":11_5" function="internal">
        <lane id=":11_5_0" index="0" speed="13.90" length="5.58" shape="1580.93,3300.19 1581.12,3301.66 1581.76,3302.74 1582.85,3303.43 1584.38,3303.73"/>
    </edge>
    <edge id=":11_6" function="internal">
        <lane id=":11_6_0" index="0" speed="13.90" length="16.36" shape="1580.93,3300.19 1580.51,3316.56"/>
        <lane id=":11_6_1" index="1" speed="13.90" length="16.36" shape="1577.63,3300.13 1577.21,3316.46"/>
    </edge>
    <edge id=":11_8" function="internal">
        <lane id=":11_8_0" index="0" speed="13.90" length="6.47" shape="1577.63,3300.13 1576.94,3304.36 1575.77,3306.20"/>
    </edge>
    <edge id=":11_9" function="internal">
        <lane id=":11_9_0" index="0" speed="13.90" length="2.41" shape="1577.63,3300.13 1576.78,3301.35 1575.95,3301.74"/>
    </edge>
    <edge id=":11_22" function="internal">
        <lane id=":11_22_0" index="0" speed="13.90" length="9.24" shape="1575.77,3306.20 1575.04,3307.36 1571.95,3309.11 1567.67,3309.63"/>
    </edge>
    <edge id=":11_23" function="internal">
        <lane id=":11_23_0" index="0" speed="13.90" length="2.41" shape="1575.95,3301.74 1575.13,3301.31 1574.33,3300.06"/>
    </edge>
    <edge id=":11_10" function="internal">
        <lane id=":11_10_0" index="0" speed="13.90" length="5.05" shape="1567.81,3303.03 1569.20,3302.86 1570.20,3302.30 1570.81,3301.35 1571.03,3299.99"/>
    </edge>
    <edge id=":11_11" function="internal">
        <lane id=":11_11_0" index="0" speed="13.90" length="16.51" shape="1567.81,3303.03 1584.38,3303.73"/>
        <lane id=":11_11_1" index="1" speed="13.90" length="16.51" shape="1567.74,3306.33 1584.17,3307.03"/>
    </edge>
    <edge id=":11_13" function="internal">
        <lane id=":11_13_0" index="0" speed="13.90" length="6.64" shape="1567.74,3306.33 1572.00,3307.04 1573.95,3308.29"/>
    </edge>
    <edge id=":11_14" function="internal">
        <lane id=":11_14_0" index="0" speed="13.90" length="2.41" shape="1567.74,3306.33 1568.96,3307.18 1569.35,3308.01"/>
    </edge>
    <edge id=":11_24" function="internal">
        <lane id=":11_24_0" index="0" speed="13.90" length="9.21" shape="1573.95,3308.29 1575.00,3308.96 1576.73,3312.10 1577.21,3316.46"/>
    </edge>
    <edge id=":11_25" function="internal">
        <lane id=":11_25_0" index="0" speed="13.90" length="2.41" shape="1569.35,3308.01 1568.92,3308.83 1567.67,3309.63"/>
    </edge>
    <edge id=":11_15" function="internal">
        <lane id=":11_15_0" index="0" speed="13.90" length="5.13" shape="1570.61,3316.25 1570.46,3314.82 1569.91,3313.79 1568.96,3313.16 1567.60,3312.93"/>
    </edge>
    <edge id=":11_16" function="internal">
        <lane id=":11_16_0" index="0" speed="13.90" length="16.28" shape="1570.61,3316.25 1571.03,3299.99"/>
        <lane id=":11_16_1" index="1" speed="13.90" length="16.28" shape="1573.91,3316.36 1574.33,3300.06"/>
    </edge>
    <edge id=":11_18" function="internal">
        <lane id=":11_18_0" index="0" speed="13.90" length="6.38" shape="1573.91,3316.36 1574.67,3312.04 1575.77,3310.36"/>
    </edge>
    <edge id=":11_19" function="internal">
        <lane id=":11_19_0" index="0" speed="13.90" length="2.41" shape="1573.91,3316.36 1574.77,3315.14 1575.61,3314.76"/>
    </edge>
    <edge id=":11_26" function="internal">
        <lane id=":11_26_0" index="0" speed="13.90" length="9.54" shape="1575.77,3310.36 1576.63,3309.04 1579.80,3307.37 1584.17,3307.03"/>
    </edge>
    <edge id=":11_27" function="internal">
        <lane id=":11_27_0" index="0" speed="13.90" length="2.41" shape="1575.61,3314.76 1576.42,3315.20 1577.21,3316.46"/>
    </edge>
    <edge id=":11_311_0" function="internal">
        <lane id=":11_311_0_0" index="0" speed="13.90" length="0.10" shape="1566.60,3758.15 1566.60,3758.15"/>
        <lane id=":11_311_0_1" index="1" speed="13.90" length="0.10" shape="1563.30,3758.04 1563.30,3758.04"/>
    </edge>
    <edge id=":11_312_0" function="internal">
        <lane id=":11_312_0_0" index="0" speed="13.90" length="0.10" shape="1552.44,4207.99 1552.44,4207.99"/>
        <lane id=":11_312_0_1" index="1" speed="13.90" length="0.10" shape="1549.14,4207.88 1549.14,4207.88"/>
    </edge>
    <edge id=":11_313_0" function="internal">
        <lane id=":11_313_0_0" index="0" speed="13.90" length="0.10" shape="1538.27,4657.83 1538.27,4657.83"/>
        <lane id=":11_313_0_1" index="1" speed="13.90" length="0.10" shape="1534.97,4657.72 1534.97,4657.72"/>
    </edge>
    <edge id=":11_314_0" function="internal">
        <lane id=":11_314_0_0" index="0" speed="13.90" length="0.10" shape="1524.11,5107.68 1524.11,5107.68"/>
        <lane id=":11_314_0_1" index="1" speed="13.90" length="0.10" shape="1520.81,5107.57 1520.81,5107.57"/>
    </edge>
    <edge id=":11_321_0" function="internal">
        <lane id=":11_321_0_0" index="0" speed="13.90" length="0.10" shape="2052.23,3333.39 2052.23,3333.39"/>
        <lane id=":11_321_0_1" index="1" speed="13.90" length="0.10" shape="2052.02,3336.68 2052.02,3336.68"/>
    </edge>
    <edge id=":11_322_0" function="internal">
        <lane id=":11_322_0_0" index="0" speed="13.90" length="0.10" shape="2528.33,3363.56 2528.33,3363.56"/>
        <lane id=":11_322_0_1" index="1" speed="13.90" length="0.10" shape="2528.12,3366.85 2528.12,3366.85"/>
    </edge>
    <edge id=":11_323_0" function="internal">
        <lane id=":11_323_0_0" index="0" speed="13.90" length="0.10" shape="3004.42,3393.74 3004.42,3393.74"/>
        <lane id=":11_323_0_1" index="1" speed="13.90" length="0.10" shape="3004.21,3397.03 3004.21,3397.03"/>
    </edge>
    <edge id=":11_324_0" function="internal">
        <lane id=":11_324_0_0" index="0" speed="13.90" length="0.10" shape="3480.52,3423.91 3480.52,3423.91"/>
        <lane id=":11_324_0_1" index="1" speed="13.90" length="0.10" shape="3480.31,3427.20 3480.31,3427.20"/>
    </edge>
    <edge id=":11_331_0" function="internal">
        <lane id=":11_331_0_0" index="0" speed="13.90" length="0.10" shape="1181.75,3304.72 1181.75,3304.72"/>
        <lane id=":11_331_0_1" index="1" speed="13.90" length="0.10" shape="1181.82,3301.42 1181.82,3301.42"/>
    </edge>
    <edge id=":11_332_0" function="internal">
        <lane id=":11_332_0_0" index="0" speed="13.90" length="0.10" shape="787.80,3296.34 787.80,3296.34"/>
        <lane id=":11_332_0_1" index="1" speed="13.90" length="0.10" shape="787.87,3293.04 787.87,3293.04"/>
    </edge>
    <edge id=":11_333_0" function="internal">
        <lane id=":11_333_0_0" index="0" speed="13.90" length="0.10" shape="393.84,3287.95 393.84,3287.95"/>
        <lane id=":11_333_0_1" index="1" speed="13.90" length="0.10" shape="393.91,3284.65 393.91,3284.65"/>
    </edge>
    <edge id=":11_341_0" function="internal">
        <lane id=":11_341_0_0" index="0" speed="13.90" length="0.10" shape="1579.09,2899.06 1579.09,2899.06"/>
        <lane id=":11_341_0_1" index="1" speed="13.90" length="0.10" shape="1582.39,2899.13 1582.39,2899.13"/>
    </edge>
    <edge id=":11_342_0" function="internal">
        <lane id=":11_342_0_0" index="0" speed="13.90" length="0.10" shape="1587.32,2490.06 1587.32,2490.06"/>
        <lane id=":11_342_0_1" index="1" speed="13.90" length="0.10" shape="1590.62,2490.13 1590.62,2490.13"/>
    </edge>
    <edge id=":11_343_0" function="internal">
        <lane id=":11_343_0_0" index="0" speed="13.90" length="0.10" shape="1595.54,2081.07 1595.54,2081.07"/>
        <lane id=":11_343_0_1" index="1" speed="13.90" length="0.10" shape="1598.84,2081.14 1598.84,2081.14"/>
    </edge>
    <edge id=":12_0" function="internal">
        <lane id=":12_0_0" index="0" speed="25.00" length="18.18" shape="-7.13,3284.93 -8.04,3266.31"/>
        <lane id=":12_0_1" index="1" speed="25.00" length="18.18" shape="-3.85,3284.56 -4.74,3266.40"/>
        <lane id=":12_0_2" index="2" speed="25.00" length="18.18" shape="-0.58,3284.19 -1.44,3266.48"/>
    </edge>
    <edge id=":12_3" function="internal">
        <lane id=":12_3_0" index="0" speed="19.45" length="6.83" shape="-0.58,3284.19 -0.25,3279.28 0.80,3277.68"/>
    </edge>
    <edge id=":12_4" function="internal">
        <lane id=":12_4_0" index="0" speed="25.00" length="2.57" shape="-0.58,3284.19 0.10,3282.86 0.88,3282.36 1.03,3282.42"/>
    </edge>
    <edge id=":12_14" function="internal">
        <lane id=":12_14_0" index="0" speed="19.45" length="13.05" shape="0.80,3277.68 2.02,3275.82 6.22,3273.80 12.36,3273.23"/>
    </edge>
    <edge id=":12_15" function="internal">
        <lane id=":12_15_0" index="0" speed="25.00" length="2.24" shape="1.03,3282.42 1.74,3282.68 2.70,3283.81"/>
    </edge>
    <edge id=":12_5" function="internal">
        <lane id=":12_5_0" index="0" speed="19.45" length="5.17" shape="12.22,3279.83 10.78,3280.01 9.81,3280.61 9.31,3281.63 9.26,3283.07"/>
    </edge>
    <edge id=":12_6" function="internal">
        <lane id=":12_6_0" index="0" speed="19.45" length="20.68" shape="12.29,3276.53 4.74,3275.76 -0.61,3273.81 -3.77,3270.69 -4.74,3266.40"/>
        <lane id=":12_6_1" index="1" speed="19.45" length="20.68" shape="12.29,3276.53 6.19,3275.79 1.87,3273.87 -0.68,3270.77 -1.44,3266.48"/>
    </edge>
    <edge id=":12_8" function="internal">
        <lane id=":12_8_0" index="0" speed="13.90" length="2.41" shape="12.29,3276.53 11.07,3275.68 10.67,3274.85"/>
    </edge>
    <edge id=":12_16" function="internal">
        <lane id=":12_16_0" index="0" speed="13.90" length="2.41" shape="10.67,3274.85 11.10,3274.03 12.36,3273.23"/>
    </edge>
    <edge id=":12_9" function="internal">
        <lane id=":12_9_0" index="0" speed="19.45" length="5.79" shape="8.46,3266.74 8.67,3268.11 9.41,3269.09 10.66,3269.70 12.43,3269.93"/>
    </edge>
    <edge id=":12_10" function="internal">
        <lane id=":12_10_0" index="0" speed="25.00" length="16.81" shape="8.46,3266.74 9.26,3283.07"/>
        <lane id=":12_10_1" index="1" speed="25.00" length="16.81" shape="5.16,3266.66 5.98,3283.44"/>
        <lane id=":12_10_2" index="2" speed="25.00" length="16.81" shape="1.86,3266.57 2.70,3283.81"/>
    </edge>
    <edge id=":12_13" function="internal">
        <lane id=":12_13_0" index="0" speed="25.00" length="2.41" shape="1.86,3266.57 1.00,3267.79 0.17,3268.18"/>
    </edge>
    <edge id=":12_17" function="internal">
        <lane id=":12_17_0" index="0" speed="25.00" length="2.41" shape="0.17,3268.18 -0.65,3267.74 -1.44,3266.48"/>
    </edge>
    <edge id=":12_351_0" function="internal">
        <lane id=":12_351_0_0" index="0" speed="25.00" length="0.10" shape="60.20,3732.09 60.20,3732.09"/>
        <lane id=":12_351_0_1" index="1" speed="25.00" length="0.10" shape="56.92,3732.46 56.92,3732.46"/>
        <lane id=":12_351_0_2" index="2" speed="25.00" length="0.10" shape="53.64,3732.83 53.64,3732.83"/>
    </edge>
    <edge id=":12_352_0" function="internal">
        <lane id=":12_352_0_0" index="0" speed="25.00" length="0.10" shape="112.19,4190.49 112.19,4190.49"/>
        <lane id=":12_352_0_1" index="1" speed="25.00" length="0.10" shape="108.91,4190.86 108.91,4190.86"/>
        <lane id=":12_352_0_2" index="2" speed="25.00" length="0.10" shape="105.63,4191.23 105.63,4191.23"/>
    </edge>
    <edge id=":12_353_0" function="internal">
        <lane id=":12_353_0_0" index="0" speed="25.00" length="0.10" shape="164.19,4648.88 164.19,4648.88"/>
        <lane id=":12_353_0_1" index="1" speed="25.00" length="0.10" shape="160.91,4649.25 160.91,4649.25"/>
        <lane id=":12_353_0_2" index="2" speed="25.00" length="0.10" shape="157.63,4649.62 157.63,4649.62"/>
    </edge>
    <edge id=":12_354_0" function="internal">
        <lane id=":12_354_0_0" index="0" speed="25.00" length="0.10" shape="216.19,5107.28 216.19,5107.28"/>
        <lane id=":12_354_0_1" index="1" speed="25.00" length="0.10" shape="212.91,5107.65 212.91,5107.65"/>
        <lane id=":12_354_0_2" index="2" speed="25.00" length="0.10" shape="209.63,5108.02 209.63,5108.02"/>
    </edge>
    <edge id=":12_355_0" function="internal">
        <lane id=":12_355_0_0" index="0" speed="25.00" length="0.10" shape="268.18,5565.68 268.18,5565.68"/>
        <lane id=":12_355_0_1" index="1" speed="25.00" length="0.10" shape="264.90,5566.05 264.90,5566.05"/>
        <lane id=":12_355_0_2" index="2" speed="25.00" length="0.10" shape="261.62,5566.42 261.62,5566.42"/>
    </edge>
    <edge id=":12_356_0" function="internal">
        <lane id=":12_356_0_0" index="0" speed="25.00" length="0.10" shape="320.18,6024.07 320.18,6024.07"/>
        <lane id=":12_356_0_1" index="1" speed="25.00" length="0.10" shape="316.90,6024.44 316.90,6024.44"/>
        <lane id=":12_356_0_2" index="2" speed="25.00" length="0.10" shape="313.62,6024.81 313.62,6024.81"/>
    </edge>
    <edge id=":12_361_0" function="internal">
        <lane id=":12_361_0_0" index="0" speed="13.90" length="0.10" shape="394.06,3278.05 394.06,3278.05"/>
        <lane id=":12_361_0_1" index="1" speed="13.90" length="0.10" shape="393.99,3281.35 393.99,3281.35"/>
    </edge>
    <edge id=":12_362_0" function="internal">
        <lane id=":12_362_0_0" index="0" speed="13.90" length="0.10" shape="788.02,3286.44 788.02,3286.44"/>
        <lane id=":12_362_0_1" index="1" speed="13.90" length="0.10" shape="787.95,3289.74 787.95,3289.74"/>
    </edge>
    <edge id=":12_363_0" function="internal">
        <lane id=":12_363_0_0" index="0" speed="13.90" length="0.10" shape="1181.97,3294.82 1181.97,3294.82"/>
        <lane id=":12_363_0_1" index="1" speed="13.90" length="0.10" shape="1181.90,3298.12 1181.90,3298.12"/>
    </edge>
    <edge id=":12_371_0" function="internal">
        <lane id=":12_371_0_0" index="0" speed="25.00" length="0.10" shape="3.85,2806.61 3.85,2806.61"/>
        <lane id=":12_371_0_1" index="1" speed="25.00" length="0.10" shape="7.15,2806.69 7.15,2806.69"/>
        <lane id=":12_371_0_2" index="2" speed="25.00" length="0.10" shape="10.45,2806.78 10.45,2806.78"/>
    </edge>
    <edge id=":12_372_0" function="internal">
        <lane id=":12_372_0_0" index="0" speed="25.00" length="0.10" shape="15.95,2338.81 15.95,2338.81"/>
        <lane id=":12_372_0_1" index="1" speed="25.00" length="0.10" shape="19.25,2338.89 19.25,2338.89"/>
        <lane id=":12_372_0_2" index="2" speed="25.00" length="0.10" shape="22.55,2338.98 22.55,2338.98"/>
    </edge>
    <edge id=":12_373_0" function="internal">
        <lane id=":12_373_0_0" index="0" speed="25.00" length="0.10" shape="28.06,1871.00 28.06,1871.00"/>
        <lane id=":12_373_0_1" index="1" speed="25.00" length="0.10" shape="31.36,1871.08 31.36,1871.08"/>
        <lane id=":12_373_0_2" index="2" speed="25.00" length="0.10" shape="34.66,1871.17 34.66,1871.17"/>
    </edge>