<?xml version="1.0" encoding="UTF-8"?>

<!-- generated on Mon Apr 17 19:51:04 2017 by SUMO Version 0.29.0
<?xml version="1.0" encoding="UTF-8"?>

<configuration xmlns:xsi="http://www.w3.org/2001/XMLSchema-instance" xsi:noNamespaceSchemaLocation="http://sumo.dlr.de/xsd/sumoConfiguration.xsd">

    <input>
        <net-file value="../config/../network/SF_with_TLS.net.xml"/>
        <additional-files value="../config/additional.xml"/>
    </input>

    <processing>
        <ignore-route-errors value="true"/>
    </processing>

    <report>
        <no-warnings value="true"/>
    </report>

    <traci_server>
        <remote-port value="41285"/>
    </traci_server>

</configuration>
